Program Version,EnergyPlus-Windows-32 8.0.0.008, YMD=2013.09.24 15:24
! This file shows details about the branches, nodes, and other
! elements of the flow connections.
! This file is intended for use in "debugging" potential problems
! that may also be detected by the program, but may be more easily
! identified by "eye".
! This file is also intended to support software which draws a
! schematic diagram of the HVAC system.
! ===============================================================
! #Nodes,<Number of Unique Nodes>
 #Nodes,200                 
! <Node>,<NodeNumber>,<Node Name>,<Node Fluid Type>,<# Times Node Referenced After Definition>
 Node,1,NODE 18,Air,4
 Node,2,NODE 76,Air,4
 Node,3,NODE 85,Air,4
 Node,4,NODE 97,Air,4
 Node,5,NODE 100,Air,4
 Node,6,NODE 168,Air,3
 Node,7,NODE 167,Air,3
 Node,8,NODE 113,Air,4
 Node,9,NODE 121,Air,4
 Node,10,NODE 170,Air,3
 Node,11,NODE 169,Air,3
 Node,12,NODE 123,Air,4
 Node,13,NODE 125,Air,4
 Node,14,NODE 158,Air,4
 Node,15,NODE 166,Air,3
 Node,16,NODE 147,Air,4
 Node,17,NODE 143,Air,3
 Node,18,NODE 150,Air,6
 Node,19,NODE 151,Air,6
 Node,20,NODE 152,Air,8
 Node,21,NODE 144,Air,9
 Node,22,NODE 154,Air,3
 Node,23,NODE 161,Air,6
 Node,24,NODE 162,Air,6
 Node,25,NODE 163,Air,8
 Node,26,NODE 155,Air,9
 Node,27,NODE 14,Air,3
 Node,28,NODE 21,Air,5
 Node,29,NODE 22,Air,5
 Node,30,NODE 23,Air,8
 Node,31,NODE 15,Air,9
 Node,32,NODE 81,Air,3
 Node,33,NODE 88,Air,5
 Node,34,NODE 89,Air,5
 Node,35,NODE 90,Air,8
 Node,36,NODE 82,Air,9
 Node,37,NODE 109,Air,3
 Node,38,NODE 117,Air,5
 Node,39,NODE 118,Air,5
 Node,40,NODE 119,Air,8
 Node,41,NODE 110,Air,9
 Node,42,NODE 40,Water,2
 Node,43,NODE 46,Water,1
 Node,44,NODE 42,Water,1
 Node,45,NODE 47,Water,1
 Node,46,NODE 48,Water,1
 Node,47,NODE 49,Water,1
 Node,48,NODE 50,Water,1
 Node,49,NODE 41,Water,4
 Node,50,NODE 43,Water,2
 Node,51,NODE 57,Water,1
 Node,52,NODE 45,Water,2
 Node,53,NODE 51,Water,1
 Node,54,NODE 53,Water,1
 Node,55,NODE 54,Water,1
 Node,56,NODE 91,Water,2
 Node,57,NODE 92,Water,1
 Node,58,NODE 127,Water,2
 Node,59,NODE 128,Water,1
 Node,60,CHILLED WATER LOOP DEMAND BYPASS PIPE INLET NODE,Water,1
 Node,61,CHILLED WATER LOOP DEMAND BYPASS PIPE OUTLET NODE,Water,1
 Node,62,NODE 58,Water,1
 Node,63,NODE 44,Water,2
 Node,64,NODE 59,Water,2
 Node,65,NODE 69,Water,1
 Node,66,NODE 61,Water,1
 Node,67,NODE 65,Water,1
 Node,68,NODE 66,Water,1
 Node,69,NODE 67,Water,1
 Node,70,NODE 68,Water,1
 Node,71,NODE 60,Water,4
 Node,72,NODE 62,Water,2
 Node,73,NODE 73,Water,1
 Node,74,NODE 64,Water,1
 Node,75,NODE 70,Water,1
 Node,76,NODE 71,Water,1
 Node,77,NODE 72,Water,1
 Node,78,CONDENSER WATER LOOP DEMAND BYPASS PIPE INLET NODE,Water,1
 Node,79,CONDENSER WATER LOOP DEMAND BYPASS PIPE OUTLET NODE,Water,1
 Node,80,NODE 74,Water,1
 Node,81,NODE 63,Water,2
 Node,82,NODE 24,Water,2
 Node,83,NODE 30,Water,1
 Node,84,NODE 26,Water,1
 Node,85,NODE 31,Water,1
 Node,86,NODE 32,Water,1
 Node,87,NODE 33,Water,1
 Node,88,NODE 39,Water,1
 Node,89,NODE 25,Water,4
 Node,90,NODE 27,Water,2
 Node,91,NODE 38,Water,1
 Node,92,NODE 29,Water,1
 Node,93,NODE 34,Water,1
 Node,94,NODE 35,Water,2
 Node,95,NODE 36,Water,1
 Node,96,NODE 56,Water,1
 Node,97,NODE 75,Water,1
 Node,98,NODE 79,Water,1
 Node,99,NODE 80,Water,1
 Node,100,NODE 93,Water,2
 Node,101,NODE 94,Water,1
 Node,102,NODE 103,Water,1
 Node,103,NODE 104,Water,1
 Node,104,NODE 105,Water,1
 Node,105,NODE 106,Water,1
 Node,106,NODE 107,Water,1
 Node,107,NODE 108,Water,1
 Node,108,NODE 129,Water,2
 Node,109,NODE 130,Water,1
 Node,110,NODE 135,Water,1
 Node,111,NODE 136,Water,1
 Node,112,NODE 137,Water,1
 Node,113,NODE 138,Water,1
 Node,114,NODE 139,Water,1
 Node,115,NODE 140,Water,1
 Node,116,NODE 141,Water,1
 Node,117,NODE 142,Water,1
 Node,118,HOT WATER LOOP DEMAND BYPASS PIPE INLET NODE,Water,1
 Node,119,HOT WATER LOOP DEMAND BYPASS PIPE OUTLET NODE,Water,1
 Node,120,NODE 37,Water,1
 Node,121,NODE 28,Water,2
 Node,122,OS:ZONEHVAC:PACKAGEDTERMINALHEATPUMP 3RD FLOOR GUEST OA NODE,Air,1
 Node,123,OS:ZONEHVAC:PACKAGEDTERMINALHEATPUMP 4TH FLOOR GUEST OA NODE,Air,1
 Node,124,NODE 148,Air,2
 Node,125,NODE 159,Air,2
 Node,126,NODE 19,Air,2
 Node,127,NODE 86,Air,2
 Node,128,NODE 115,Air,2
 Node,129,NODE 5,Air,1
 Node,130,NODE 4,Air,0
 Node,131,NODE 52,Air,1
 Node,132,NODE 1,Air,0
 Node,133,NODE 77,Air,1
 Node,134,NODE 10,Air,0
 Node,135,NODE 95,Air,1
 Node,136,NODE 13,Air,0
 Node,137,NODE 98,Air,1
 Node,138,NODE 9,Air,0
 Node,139,NODE 101,Air,1
 Node,140,NODE 2,Air,0
 Node,141,THERMAL ZONE: SPACE 301 - PLUS RETURN AIR NODE,Air,0
 Node,142,NODE 12,Air,0
 Node,143,NODE 120,Air,1
 Node,144,NODE 7,Air,0
 Node,145,NODE 122,Air,1
 Node,146,NODE 3,Air,0
 Node,147,THERMAL ZONE: SPACE 401 - PLUS RETURN AIR NODE,Air,0
 Node,148,NODE 11,Air,0
 Node,149,NODE 124,Air,1
 Node,150,NODE 8,Air,0
 Node,151,NODE 126,Air,1
 Node,152,NODE 6,Air,0
 Node,153,NODE 164,Air,1
 Node,154,NODE 153,Air,1
 Node,155,NODE 145,Air,2
 Node,156,NODE 156,Air,2
 Node,157,NODE 16,Air,2
 Node,158,NODE 83,Air,2
 Node,159,NODE 111,Air,2
 Node,160,NODE 146,Air,2
 Node,161,NODE 157,Air,2
 Node,162,NODE 17,Air,2
 Node,163,NODE 84,Air,2
 Node,164,NODE 112,Air,2
 Node,165,NODE 165,Air,2
 Node,166,NODE 55,Air,1
 Node,167,NODE 78,Air,1
 Node,168,NODE 96,Air,1
 Node,169,NODE 99,Air,1
 Node,170,NODE 102,Air,1
 Node,171,NODE 131,Air,1
 Node,172,NODE 132,Air,1
 Node,173,NODE 133,Air,1
 Node,174,NODE 134,Air,1
 Node,175,AIR TERMINAL SINGLE DUCT VAV REHEAT 2 DAMPER OUTLET,Air,1
 Node,176,AIR TERMINAL SINGLE DUCT VAV REHEAT 3 DAMPER OUTLET,Air,1
 Node,177,AIR TERMINAL SINGLE DUCT VAV REHEAT 4 DAMPER OUTLET,Air,1
 Node,178,AIR TERMINAL SINGLE DUCT VAV REHEAT 5 DAMPER OUTLET,Air,1
 Node,179,AIR TERMINAL SINGLE DUCT VAV REHEAT 6 DAMPER OUTLET,Air,1
 Node,180,AIRTERMINAL WITH HOT WATER REHEAT DAMPER OUTLET,Air,1
 Node,181,AIRTERMINAL WITH HOT WATER REHEAT 1 DAMPER OUTLET,Air,1
 Node,182,AIRTERMINAL WITH HOT WATER REHEAT 2 DAMPER OUTLET,Air,1
 Node,183,AIRTERMINAL WITH HOT WATER REHEAT 3 DAMPER OUTLET,Air,1
 Node,184,OS:ZONEHVAC:PACKAGEDTERMINALHEATPUMP 3RD FLOOR GUEST MIXED AIR NODE,Air,1
 Node,185,OS:ZONEHVAC:PACKAGEDTERMINALHEATPUMP 3RD FLOOR GUEST RELIEF AIR NODE,Air,0
 Node,186,OS:ZONEHVAC:PACKAGEDTERMINALHEATPUMP 4TH FLOOR GUEST MIXED AIR NODE,Air,1
 Node,187,OS:ZONEHVAC:PACKAGEDTERMINALHEATPUMP 4TH FLOOR GUEST RELIEF AIR NODE,Air,0
 Node,188,NODE 149,Air,1
 Node,189,NODE 160,Air,1
 Node,190,NODE 20,Air,1
 Node,191,NODE 87,Air,1
 Node,192,NODE 116,Air,1
 Node,193,OS:ZONEHVAC:PACKAGEDTERMINALHEATPUMP 3RD FLOOR GUEST HEATING COIL OUTLET NODE,Air,1
 Node,194,OS:ZONEHVAC:PACKAGEDTERMINALHEATPUMP 3RD FLOOR GUEST FAN OUTLET NODE,Air,1
 Node,195,OS:ZONEHVAC:PACKAGEDTERMINALHEATPUMP 4TH FLOOR GUEST HEATING COIL OUTLET NODE,Air,1
 Node,196,OS:ZONEHVAC:PACKAGEDTERMINALHEATPUMP 4TH FLOOR GUEST FAN OUTLET NODE,Air,1
 Node,197,AIR TERMINAL SINGLE DUCT PARALLEL PIU REHEAT 2 FAN OUTLET,Air,1
 Node,198,OS:ZONEHVAC:PACKAGEDTERMINALHEATPUMP 3RD FLOOR GUEST COOLING COIL OUTLET NODE,Air,1
 Node,199,OS:ZONEHVAC:PACKAGEDTERMINALHEATPUMP 4TH FLOOR GUEST COOLING COIL OUTLET NODE,Air,1
 Node,200,AIR TERMINAL SINGLE DUCT PARALLEL PIU REHEAT 2 MIXER OUTLET,Air,2
! ===============================================================
! Suspicious nodes have 0 references.  It is normal for some nodes, however.
! Listing nodes with 0 references (culled from previous list):
! <Suspicious Node>,<NodeNumber>,<Node Name>,<Node Fluid Type>,<# Times Node Referenced After Definition>
 Suspicious Node,130,NODE 4,Air,0
 Suspicious Node,132,NODE 1,Air,0
 Suspicious Node,134,NODE 10,Air,0
 Suspicious Node,136,NODE 13,Air,0
 Suspicious Node,138,NODE 9,Air,0
 Suspicious Node,140,NODE 2,Air,0
 Suspicious Node,141,THERMAL ZONE: SPACE 301 - PLUS RETURN AIR NODE,Air,0
 Suspicious Node,142,NODE 12,Air,0
 Suspicious Node,144,NODE 7,Air,0
 Suspicious Node,146,NODE 3,Air,0
 Suspicious Node,147,THERMAL ZONE: SPACE 401 - PLUS RETURN AIR NODE,Air,0
 Suspicious Node,148,NODE 11,Air,0
 Suspicious Node,150,NODE 8,Air,0
 Suspicious Node,152,NODE 6,Air,0
 Suspicious Node,185,OS:ZONEHVAC:PACKAGEDTERMINALHEATPUMP 3RD FLOOR GUEST RELIEF AIR NODE,Air,0
 Suspicious Node,187,OS:ZONEHVAC:PACKAGEDTERMINALHEATPUMP 4TH FLOOR GUEST RELIEF AIR NODE,Air,0
! ===============================================================
! <#Branch Lists>,<Number of Branch Lists>
 #Branch Lists,11
! <Branch List>,<Branch List Count>,<Branch List Name>,<Loop Name>,<Loop Type>,<Number of Branches>
! <Branch>,<Branch Count>,<Branch Name>,<Loop Name>,<Loop Type>,<Branch Inlet Node Name>,<Branch Outlet Node Name>
 Branch List,1,BRANCHLIST {19881D0F-691F-4ACE-98E2-3AC7D4E2990A},PACKAGED ROOFTOP AIR CONDITIONER - KITCHEN,Air,1
   Branch,1,BRANCH {A31E51AE-DE98-43B2-AFA0-0A21EACA4CFD},PACKAGED ROOFTOP AIR CONDITIONER - KITCHEN,Air,NODE 143,NODE 144
 Branch List,2,BRANCHLIST {82A6EAB9-A3A0-45DD-8C37-03BB513F2AA3},PACKAGED ROOFTOP VAV WITH PFP BOXES AND REHEAT - DINING,Air,1
   Branch,1,BRANCH {42BB0641-83AE-43FF-BBCE-B8D4B60786CC},PACKAGED ROOFTOP VAV WITH PFP BOXES AND REHEAT - DINING,Air,NODE 154,NODE 155
 Branch List,3,BRANCHLIST {4F4C01D9-1F84-45CB-9C98-8F081EA05276},VAV WITH REHEAT 1ST FLOOR,Air,1
   Branch,1,BRANCH {39A8AE21-E98C-41B5-935A-8ECC24144E1B},VAV WITH REHEAT 1ST FLOOR,Air,NODE 14,NODE 15
 Branch List,4,BRANCHLIST {15B4E311-AF74-4335-A877-316AA0F2CE8C},VAV WITH REHEAT 2ND FLOOR,Air,1
   Branch,1,BRANCH {F9E8411D-498F-4DAE-BE62-E072197485A0},VAV WITH REHEAT 2ND FLOOR,Air,NODE 81,NODE 82
 Branch List,5,BRANCHLIST {C2B033E2-7430-498A-AFDE-941B76213D8C},VAV WITH REHEAT 3RD AND 4TH FLOOR (HAND BUILT),Air,1
   Branch,1,BRANCH {B091C554-7A6D-4C95-9911-5219ED0B6312},VAV WITH REHEAT 3RD AND 4TH FLOOR (HAND BUILT),Air,NODE 109,NODE 110
 Branch List,6,CHILLED WATER LOOP SUPPLY BRANCHES,CHILLED WATER LOOP,Plant Supply,4
   Branch,1,CHILLED WATER LOOP SUPPLY INLET BRANCH,CHILLED WATER LOOP,Plant Supply,NODE 40,NODE 46
   Branch,2,CHILLED WATER LOOP SUPPLY BRANCH 1,CHILLED WATER LOOP,Plant Supply,NODE 42,NODE 47
   Branch,3,CHILLED WATER LOOP SUPPLY BRANCH 2,CHILLED WATER LOOP,Plant Supply,NODE 48,NODE 49
   Branch,4,CHILLED WATER LOOP SUPPLY OUTLET BRANCH,CHILLED WATER LOOP,Plant Supply,NODE 50,NODE 41
 Branch List,7,CHILLED WATER LOOP DEMAND BRANCHES,CHILLED WATER LOOP,Plant Demand,7
   Branch,1,CHILLED WATER LOOP DEMAND INLET BRANCH,CHILLED WATER LOOP,Plant Demand,NODE 43,NODE 57
   Branch,2,CHILLED WATER LOOP DEMAND BRANCH 1,CHILLED WATER LOOP,Plant Demand,NODE 45,NODE 51
   Branch,3,CHILLED WATER LOOP DEMAND BRANCH 2,CHILLED WATER LOOP,Plant Demand,NODE 53,NODE 54
   Branch,4,CHILLED WATER LOOP DEMAND BRANCH 3,CHILLED WATER LOOP,Plant Demand,NODE 91,NODE 92
   Branch,5,CHILLED WATER LOOP DEMAND BRANCH 4,CHILLED WATER LOOP,Plant Demand,NODE 127,NODE 128
   Branch,6,CHILLED WATER LOOP DEMAND BYPASS BRANCH,CHILLED WATER LOOP,Plant Demand,CHILLED WATER LOOP DEMAND BYPASS PIPE INLET NODE,CHILLED WATER LOOP DEMAND BYPASS PIPE OUTLET NODE
   Branch,7,CHILLED WATER LOOP DEMAND OUTLET BRANCH,CHILLED WATER LOOP,Plant Demand,NODE 58,NODE 44
 Branch List,8,CONDENSER WATER LOOP SUPPLY BRANCHES,CONDENSER WATER LOOP,Plant Supply,4
   Branch,1,CONDENSER WATER LOOP SUPPLY INLET BRANCH,CONDENSER WATER LOOP,Plant Supply,NODE 59,NODE 69
   Branch,2,CONDENSER WATER LOOP SUPPLY BRANCH 1,CONDENSER WATER LOOP,Plant Supply,NODE 61,NODE 65
   Branch,3,CONDENSER WATER LOOP SUPPLY BRANCH 2,CONDENSER WATER LOOP,Plant Supply,NODE 66,NODE 67
   Branch,4,CONDENSER WATER LOOP SUPPLY OUTLET BRANCH,CONDENSER WATER LOOP,Plant Supply,NODE 68,NODE 60
 Branch List,9,CONDENSER WATER LOOP DEMAND BRANCHES,CONDENSER WATER LOOP,Plant Demand,5
   Branch,1,CONDENSER WATER LOOP DEMAND INLET BRANCH,CONDENSER WATER LOOP,Plant Demand,NODE 62,NODE 73
   Branch,2,CONDENSER WATER LOOP DEMAND BRANCH 1,CONDENSER WATER LOOP,Plant Demand,NODE 64,NODE 70
   Branch,3,CONDENSER WATER LOOP DEMAND BRANCH 2,CONDENSER WATER LOOP,Plant Demand,NODE 71,NODE 72
   Branch,4,CONDENSER WATER LOOP DEMAND BYPASS BRANCH,CONDENSER WATER LOOP,Plant Demand,CONDENSER WATER LOOP DEMAND BYPASS PIPE INLET NODE,CONDENSER WATER LOOP DEMAND BYPASS PIPE OUTLET NODE
   Branch,5,CONDENSER WATER LOOP DEMAND OUTLET BRANCH,CONDENSER WATER LOOP,Plant Demand,NODE 74,NODE 63
 Branch List,10,HOT WATER LOOP SUPPLY BRANCHES,HOT WATER LOOP,Plant Supply,4
   Branch,1,HOT WATER LOOP SUPPLY INLET BRANCH,HOT WATER LOOP,Plant Supply,NODE 24,NODE 30
   Branch,2,HOT WATER LOOP SUPPLY BRANCH 1,HOT WATER LOOP,Plant Supply,NODE 26,NODE 31
   Branch,3,HOT WATER LOOP SUPPLY BRANCH 2,HOT WATER LOOP,Plant Supply,NODE 32,NODE 33
   Branch,4,HOT WATER LOOP SUPPLY OUTLET BRANCH,HOT WATER LOOP,Plant Supply,NODE 39,NODE 25
 Branch List,11,HOT WATER LOOP DEMAND BRANCHES,HOT WATER LOOP,Plant Demand,16
   Branch,1,HOT WATER LOOP DEMAND INLET BRANCH,HOT WATER LOOP,Plant Demand,NODE 27,NODE 38
   Branch,2,HOT WATER LOOP DEMAND BRANCH 1,HOT WATER LOOP,Plant Demand,NODE 29,NODE 34
   Branch,3,HOT WATER LOOP DEMAND BRANCH 2,HOT WATER LOOP,Plant Demand,NODE 35,NODE 36
   Branch,4,HOT WATER LOOP DEMAND BRANCH 3,HOT WATER LOOP,Plant Demand,NODE 56,NODE 75
   Branch,5,HOT WATER LOOP DEMAND BRANCH 4,HOT WATER LOOP,Plant Demand,NODE 79,NODE 80
   Branch,6,HOT WATER LOOP DEMAND BRANCH 5,HOT WATER LOOP,Plant Demand,NODE 93,NODE 94
   Branch,7,HOT WATER LOOP DEMAND BRANCH 6,HOT WATER LOOP,Plant Demand,NODE 103,NODE 104
   Branch,8,HOT WATER LOOP DEMAND BRANCH 7,HOT WATER LOOP,Plant Demand,NODE 105,NODE 106
   Branch,9,HOT WATER LOOP DEMAND BRANCH 8,HOT WATER LOOP,Plant Demand,NODE 107,NODE 108
   Branch,10,HOT WATER LOOP DEMAND BRANCH 9,HOT WATER LOOP,Plant Demand,NODE 129,NODE 130
   Branch,11,HOT WATER LOOP DEMAND BRANCH 10,HOT WATER LOOP,Plant Demand,NODE 135,NODE 136
   Branch,12,HOT WATER LOOP DEMAND BRANCH 11,HOT WATER LOOP,Plant Demand,NODE 137,NODE 138
   Branch,13,HOT WATER LOOP DEMAND BRANCH 12,HOT WATER LOOP,Plant Demand,NODE 139,NODE 140
   Branch,14,HOT WATER LOOP DEMAND BRANCH 13,HOT WATER LOOP,Plant Demand,NODE 141,NODE 142
   Branch,15,HOT WATER LOOP DEMAND BYPASS BRANCH,HOT WATER LOOP,Plant Demand,HOT WATER LOOP DEMAND BYPASS PIPE INLET NODE,HOT WATER LOOP DEMAND BYPASS PIPE OUTLET NODE
   Branch,16,HOT WATER LOOP DEMAND OUTLET BRANCH,HOT WATER LOOP,Plant Demand,NODE 37,NODE 28
! ===============================================================
! <#Supply Air Paths>,<Number of Supply Air Paths>
 #Supply Air Paths,5
! <Supply Air Path>,<Supply Air Path Count>,<Supply Air Path Name>,<AirLoopHVAC Name>
! <#Components on Supply Air Path>,<Number of Components>
! <Supply Air Path Component>,<Component Count>,<Component Type>,<Component Name>,<AirLoopHVAC Name>
! <#Outlet Nodes on Supply Air Path Component>,<Number of Nodes>
! <Supply Air Path Component Nodes>,<Node Count>,<Component Type>,<Component Name>,<Inlet Node Name>,<Outlet Node Name>,<AirLoopHVAC Name>
 Supply Air Path,1,AIRLOOPHVAC:SUPPLYPATH {5B6D7CA7-D0E0-41B9-8F37-B345BC9AB20F},PACKAGED ROOFTOP AIR CONDITIONER - KITCHEN
   #Components on Supply Air Path,1
   Supply Air Path Component,1,AIRLOOPHVAC:ZONESPLITTER,AIR LOOP HVAC ZONE SPLITTER 4,PACKAGED ROOFTOP AIR CONDITIONER - KITCHEN
     #Outlet Nodes on Supply Air Path Component,1
     Supply Air Path Component Nodes,1,AIRLOOPHVAC:ZONESPLITTER,AIR LOOP HVAC ZONE SPLITTER 4,NODE 145,NODE 147,PACKAGED ROOFTOP AIR CONDITIONER - KITCHEN
! <#Nodes on Supply Air Path>,<Number of Nodes>
! <Supply Air Path Node>,<Node Type>,<Node Count>,<Node Name>,<AirLoopHVAC Name>
#Nodes on Supply Air Path,2
   Supply Air Path Node,Inlet Node,1,NODE 145,PACKAGED ROOFTOP AIR CONDITIONER - KITCHEN
   Supply Air Path Node,Outlet Node,2,NODE 147,PACKAGED ROOFTOP AIR CONDITIONER - KITCHEN
 Supply Air Path,2,AIRLOOPHVAC:SUPPLYPATH {FA83A9E0-FBA0-46FC-ACFF-8746630C5EF9},PACKAGED ROOFTOP VAV WITH PFP BOXES AND REHEAT - DINING
   #Components on Supply Air Path,1
   Supply Air Path Component,1,AIRLOOPHVAC:ZONESPLITTER,AIR LOOP HVAC ZONE SPLITTER 5,PACKAGED ROOFTOP VAV WITH PFP BOXES AND REHEAT - DINING
     #Outlet Nodes on Supply Air Path Component,1
     Supply Air Path Component Nodes,1,AIRLOOPHVAC:ZONESPLITTER,AIR LOOP HVAC ZONE SPLITTER 5,NODE 156,NODE 165,PACKAGED ROOFTOP VAV WITH PFP BOXES AND REHEAT - DINING
! <#Nodes on Supply Air Path>,<Number of Nodes>
! <Supply Air Path Node>,<Node Type>,<Node Count>,<Node Name>,<AirLoopHVAC Name>
#Nodes on Supply Air Path,2
   Supply Air Path Node,Inlet Node,1,NODE 156,PACKAGED ROOFTOP VAV WITH PFP BOXES AND REHEAT - DINING
   Supply Air Path Node,Outlet Node,2,NODE 165,PACKAGED ROOFTOP VAV WITH PFP BOXES AND REHEAT - DINING
 Supply Air Path,3,AIRLOOPHVAC:SUPPLYPATH {4D08FD4E-945B-4812-B173-641124127EBB},VAV WITH REHEAT 1ST FLOOR
   #Components on Supply Air Path,1
   Supply Air Path Component,1,AIRLOOPHVAC:ZONESPLITTER,AIR LOOP HVAC ZONE SPLITTER 1,VAV WITH REHEAT 1ST FLOOR
     #Outlet Nodes on Supply Air Path Component,2
     Supply Air Path Component Nodes,1,AIRLOOPHVAC:ZONESPLITTER,AIR LOOP HVAC ZONE SPLITTER 1,NODE 16,NODE 55,VAV WITH REHEAT 1ST FLOOR
     Supply Air Path Component Nodes,2,AIRLOOPHVAC:ZONESPLITTER,AIR LOOP HVAC ZONE SPLITTER 1,NODE 16,NODE 78,VAV WITH REHEAT 1ST FLOOR
! <#Nodes on Supply Air Path>,<Number of Nodes>
! <Supply Air Path Node>,<Node Type>,<Node Count>,<Node Name>,<AirLoopHVAC Name>
#Nodes on Supply Air Path,3
   Supply Air Path Node,Inlet Node,1,NODE 16,VAV WITH REHEAT 1ST FLOOR
   Supply Air Path Node,Outlet Node,2,NODE 55,VAV WITH REHEAT 1ST FLOOR
   Supply Air Path Node,Outlet Node,3,NODE 78,VAV WITH REHEAT 1ST FLOOR
 Supply Air Path,4,AIRLOOPHVAC:SUPPLYPATH {2EE7B99B-CB56-4A71-9755-CD7A9A575B90},VAV WITH REHEAT 2ND FLOOR
   #Components on Supply Air Path,1
   Supply Air Path Component,1,AIRLOOPHVAC:ZONESPLITTER,AIR LOOP HVAC ZONE SPLITTER 2,VAV WITH REHEAT 2ND FLOOR
     #Outlet Nodes on Supply Air Path Component,3
     Supply Air Path Component Nodes,1,AIRLOOPHVAC:ZONESPLITTER,AIR LOOP HVAC ZONE SPLITTER 2,NODE 83,NODE 96,VAV WITH REHEAT 2ND FLOOR
     Supply Air Path Component Nodes,2,AIRLOOPHVAC:ZONESPLITTER,AIR LOOP HVAC ZONE SPLITTER 2,NODE 83,NODE 99,VAV WITH REHEAT 2ND FLOOR
     Supply Air Path Component Nodes,3,AIRLOOPHVAC:ZONESPLITTER,AIR LOOP HVAC ZONE SPLITTER 2,NODE 83,NODE 102,VAV WITH REHEAT 2ND FLOOR
! <#Nodes on Supply Air Path>,<Number of Nodes>
! <Supply Air Path Node>,<Node Type>,<Node Count>,<Node Name>,<AirLoopHVAC Name>
#Nodes on Supply Air Path,4
   Supply Air Path Node,Inlet Node,1,NODE 83,VAV WITH REHEAT 2ND FLOOR
   Supply Air Path Node,Outlet Node,2,NODE 96,VAV WITH REHEAT 2ND FLOOR
   Supply Air Path Node,Outlet Node,3,NODE 99,VAV WITH REHEAT 2ND FLOOR
   Supply Air Path Node,Outlet Node,4,NODE 102,VAV WITH REHEAT 2ND FLOOR
 Supply Air Path,5,AIRLOOPHVAC:SUPPLYPATH {11867EF9-85BD-4F82-B24D-CFB515787FC4},VAV WITH REHEAT 3RD AND 4TH FLOOR (HAND BUILT)
   #Components on Supply Air Path,1
   Supply Air Path Component,1,AIRLOOPHVAC:ZONESPLITTER,AIR LOOP HVAC ZONE SPLITTER 3,VAV WITH REHEAT 3RD AND 4TH FLOOR (HAND BUILT)
     #Outlet Nodes on Supply Air Path Component,4
     Supply Air Path Component Nodes,1,AIRLOOPHVAC:ZONESPLITTER,AIR LOOP HVAC ZONE SPLITTER 3,NODE 111,NODE 131,VAV WITH REHEAT 3RD AND 4TH FLOOR (HAND BUILT)
     Supply Air Path Component Nodes,2,AIRLOOPHVAC:ZONESPLITTER,AIR LOOP HVAC ZONE SPLITTER 3,NODE 111,NODE 132,VAV WITH REHEAT 3RD AND 4TH FLOOR (HAND BUILT)
     Supply Air Path Component Nodes,3,AIRLOOPHVAC:ZONESPLITTER,AIR LOOP HVAC ZONE SPLITTER 3,NODE 111,NODE 133,VAV WITH REHEAT 3RD AND 4TH FLOOR (HAND BUILT)
     Supply Air Path Component Nodes,4,AIRLOOPHVAC:ZONESPLITTER,AIR LOOP HVAC ZONE SPLITTER 3,NODE 111,NODE 134,VAV WITH REHEAT 3RD AND 4TH FLOOR (HAND BUILT)
! <#Nodes on Supply Air Path>,<Number of Nodes>
! <Supply Air Path Node>,<Node Type>,<Node Count>,<Node Name>,<AirLoopHVAC Name>
#Nodes on Supply Air Path,5
   Supply Air Path Node,Inlet Node,1,NODE 111,VAV WITH REHEAT 3RD AND 4TH FLOOR (HAND BUILT)
   Supply Air Path Node,Outlet Node,2,NODE 131,VAV WITH REHEAT 3RD AND 4TH FLOOR (HAND BUILT)
   Supply Air Path Node,Outlet Node,3,NODE 132,VAV WITH REHEAT 3RD AND 4TH FLOOR (HAND BUILT)
   Supply Air Path Node,Outlet Node,4,NODE 133,VAV WITH REHEAT 3RD AND 4TH FLOOR (HAND BUILT)
   Supply Air Path Node,Outlet Node,5,NODE 134,VAV WITH REHEAT 3RD AND 4TH FLOOR (HAND BUILT)
! ===============================================================
! <#Return Air Paths>,<Number of Return Air Paths>
 #Return Air Paths,5
! <Return Air Path>,<Return Air Path Count>,<Return Air Path Name>,<AirLoopHVAC Name>
! <#Components on Return Air Path>,<Number of Components>
! <Return Air Path Component>,<Component Count>,<Component Type>,<Component Name>,<AirLoopHVAC Name>
! <#Inlet Nodes on Return Air Path Component>,<Number of Nodes>
! <Return Air Path Component Nodes>,<Node Count>,<Component Type>,<Component Name>,<Inlet Node Name>,<Outlet Node Name>,<AirLoopHVAC Name>
 Return Air Path,1,AIRLOOPHVAC:RETURNPATH {FEF32982-DBA7-4A97-AB4A-739F74F311C1},PACKAGED ROOFTOP AIR CONDITIONER - KITCHEN
   #Components on Return Air Path,1
   Return Air Path Component,1,AIRLOOPHVAC:ZONEMIXER,AIR LOOP HVAC ZONE MIXER 4,PACKAGED ROOFTOP AIR CONDITIONER - KITCHEN
     #Inlet Nodes on Return Air Path Component,1
     Return Air Path Component Nodes,1,AIRLOOPHVAC:ZONEMIXER,AIR LOOP HVAC ZONE MIXER 4,NODE 153,NODE 146,PACKAGED ROOFTOP AIR CONDITIONER - KITCHEN
! <#Nodes on Return Air Path>,<Number of Nodes>
! <Return Air Path Node>,<Node Type>,<Node Count>,<Node Name>,<AirLoopHVAC Name>
   #Nodes on Return Air Path,2
   Return Air Path Node,Outlet Node,1,NODE 146,PACKAGED ROOFTOP AIR CONDITIONER - KITCHEN
   Return Air Path Node,Inlet Node,2,NODE 153,PACKAGED ROOFTOP AIR CONDITIONER - KITCHEN
 Return Air Path,2,AIRLOOPHVAC:RETURNPATH {E2534FE9-2756-4031-9BD7-313CD6312D60},PACKAGED ROOFTOP VAV WITH PFP BOXES AND REHEAT - DINING
   #Components on Return Air Path,1
   Return Air Path Component,1,AIRLOOPHVAC:ZONEMIXER,AIR LOOP HVAC ZONE MIXER 5,PACKAGED ROOFTOP VAV WITH PFP BOXES AND REHEAT - DINING
     #Inlet Nodes on Return Air Path Component,1
     Return Air Path Component Nodes,1,AIRLOOPHVAC:ZONEMIXER,AIR LOOP HVAC ZONE MIXER 5,NODE 164,NODE 157,PACKAGED ROOFTOP VAV WITH PFP BOXES AND REHEAT - DINING
! <#Nodes on Return Air Path>,<Number of Nodes>
! <Return Air Path Node>,<Node Type>,<Node Count>,<Node Name>,<AirLoopHVAC Name>
   #Nodes on Return Air Path,2
   Return Air Path Node,Outlet Node,1,NODE 157,PACKAGED ROOFTOP VAV WITH PFP BOXES AND REHEAT - DINING
   Return Air Path Node,Inlet Node,2,NODE 164,PACKAGED ROOFTOP VAV WITH PFP BOXES AND REHEAT - DINING
 Return Air Path,3,AIRLOOPHVAC:RETURNPATH {83F97E1C-2419-46CE-9B6F-ED80F8F4D90C},VAV WITH REHEAT 1ST FLOOR
   #Components on Return Air Path,1
   Return Air Path Component,1,AIRLOOPHVAC:ZONEMIXER,AIR LOOP HVAC ZONE MIXER 1,VAV WITH REHEAT 1ST FLOOR
     #Inlet Nodes on Return Air Path Component,2
     Return Air Path Component Nodes,1,AIRLOOPHVAC:ZONEMIXER,AIR LOOP HVAC ZONE MIXER 1,NODE 52,NODE 17,VAV WITH REHEAT 1ST FLOOR
     Return Air Path Component Nodes,2,AIRLOOPHVAC:ZONEMIXER,AIR LOOP HVAC ZONE MIXER 1,NODE 77,NODE 17,VAV WITH REHEAT 1ST FLOOR
! <#Nodes on Return Air Path>,<Number of Nodes>
! <Return Air Path Node>,<Node Type>,<Node Count>,<Node Name>,<AirLoopHVAC Name>
   #Nodes on Return Air Path,3
   Return Air Path Node,Outlet Node,1,NODE 17,VAV WITH REHEAT 1ST FLOOR
   Return Air Path Node,Inlet Node,2,NODE 52,VAV WITH REHEAT 1ST FLOOR
   Return Air Path Node,Inlet Node,3,NODE 77,VAV WITH REHEAT 1ST FLOOR
 Return Air Path,4,AIRLOOPHVAC:RETURNPATH {4518B166-7516-4875-AB58-23CBC0B2D1C0},VAV WITH REHEAT 2ND FLOOR
   #Components on Return Air Path,1
   Return Air Path Component,1,AIRLOOPHVAC:ZONEMIXER,AIR LOOP HVAC ZONE MIXER 2,VAV WITH REHEAT 2ND FLOOR
     #Inlet Nodes on Return Air Path Component,3
     Return Air Path Component Nodes,1,AIRLOOPHVAC:ZONEMIXER,AIR LOOP HVAC ZONE MIXER 2,NODE 95,NODE 84,VAV WITH REHEAT 2ND FLOOR
     Return Air Path Component Nodes,2,AIRLOOPHVAC:ZONEMIXER,AIR LOOP HVAC ZONE MIXER 2,NODE 98,NODE 84,VAV WITH REHEAT 2ND FLOOR
     Return Air Path Component Nodes,3,AIRLOOPHVAC:ZONEMIXER,AIR LOOP HVAC ZONE MIXER 2,NODE 101,NODE 84,VAV WITH REHEAT 2ND FLOOR
! <#Nodes on Return Air Path>,<Number of Nodes>
! <Return Air Path Node>,<Node Type>,<Node Count>,<Node Name>,<AirLoopHVAC Name>
   #Nodes on Return Air Path,4
   Return Air Path Node,Outlet Node,1,NODE 84,VAV WITH REHEAT 2ND FLOOR
   Return Air Path Node,Inlet Node,2,NODE 95,VAV WITH REHEAT 2ND FLOOR
   Return Air Path Node,Inlet Node,3,NODE 98,VAV WITH REHEAT 2ND FLOOR
   Return Air Path Node,Inlet Node,4,NODE 101,VAV WITH REHEAT 2ND FLOOR
 Return Air Path,5,AIRLOOPHVAC:RETURNPATH {4A92D832-345E-41E9-92AE-AED5750CAC1D},VAV WITH REHEAT 3RD AND 4TH FLOOR (HAND BUILT)
   #Components on Return Air Path,1
   Return Air Path Component,1,AIRLOOPHVAC:ZONEMIXER,AIR LOOP HVAC ZONE MIXER 3,VAV WITH REHEAT 3RD AND 4TH FLOOR (HAND BUILT)
     #Inlet Nodes on Return Air Path Component,4
     Return Air Path Component Nodes,1,AIRLOOPHVAC:ZONEMIXER,AIR LOOP HVAC ZONE MIXER 3,NODE 120,NODE 112,VAV WITH REHEAT 3RD AND 4TH FLOOR (HAND BUILT)
     Return Air Path Component Nodes,2,AIRLOOPHVAC:ZONEMIXER,AIR LOOP HVAC ZONE MIXER 3,NODE 122,NODE 112,VAV WITH REHEAT 3RD AND 4TH FLOOR (HAND BUILT)
     Return Air Path Component Nodes,3,AIRLOOPHVAC:ZONEMIXER,AIR LOOP HVAC ZONE MIXER 3,NODE 124,NODE 112,VAV WITH REHEAT 3RD AND 4TH FLOOR (HAND BUILT)
     Return Air Path Component Nodes,4,AIRLOOPHVAC:ZONEMIXER,AIR LOOP HVAC ZONE MIXER 3,NODE 126,NODE 112,VAV WITH REHEAT 3RD AND 4TH FLOOR (HAND BUILT)
! <#Nodes on Return Air Path>,<Number of Nodes>
! <Return Air Path Node>,<Node Type>,<Node Count>,<Node Name>,<AirLoopHVAC Name>
   #Nodes on Return Air Path,5
   Return Air Path Node,Outlet Node,1,NODE 112,VAV WITH REHEAT 3RD AND 4TH FLOOR (HAND BUILT)
   Return Air Path Node,Inlet Node,2,NODE 120,VAV WITH REHEAT 3RD AND 4TH FLOOR (HAND BUILT)
   Return Air Path Node,Inlet Node,3,NODE 122,VAV WITH REHEAT 3RD AND 4TH FLOOR (HAND BUILT)
   Return Air Path Node,Inlet Node,4,NODE 124,VAV WITH REHEAT 3RD AND 4TH FLOOR (HAND BUILT)
   Return Air Path Node,Inlet Node,5,NODE 126,VAV WITH REHEAT 3RD AND 4TH FLOOR (HAND BUILT)
! ===============================================================
! #Outdoor Air Nodes,<Number of Outdoor Air Nodes>
 #Outdoor Air Nodes,7                   
! <Outdoor Air Node>,<NodeNumber>,<Node Name>
 Outdoor Air Node,122,OS:ZONEHVAC:PACKAGEDTERMINALHEATPUMP 3RD FLOOR GUEST OA NODE
 Outdoor Air Node,123,OS:ZONEHVAC:PACKAGEDTERMINALHEATPUMP 4TH FLOOR GUEST OA NODE
 Outdoor Air Node,124,NODE 148
 Outdoor Air Node,125,NODE 159
 Outdoor Air Node,126,NODE 19
 Outdoor Air Node,127,NODE 86
 Outdoor Air Node,128,NODE 115
! ===============================================================
! <#Component Sets>,<Number of Component Sets>
 #Component Sets,98
! <Component Set>,<Component Set Count>,<Parent Object Type>,<Parent Object Name>,<Component Type>,<Component Name>,<Inlet Node ID>,<Outlet Node ID>,<Description>
 Component Set,1,BRANCH,BRANCH {A31E51AE-DE98-43B2-AFA0-0A21EACA4CFD},AIRLOOPHVAC:OUTDOORAIRSYSTEM,AIR LOOP HVAC OUTDOOR AIR SYSTEM 4,NODE 143,NODE 150,Air Nodes
 Component Set,2,BRANCH,BRANCH {A31E51AE-DE98-43B2-AFA0-0A21EACA4CFD},COILSYSTEM:COOLING:DX,COIL COOLING DX SINGLE SPEED 1 COILSYSTEM,NODE 150,NODE 151,Air Nodes
 Component Set,3,BRANCH,BRANCH {A31E51AE-DE98-43B2-AFA0-0A21EACA4CFD},COIL:HEATING:GAS,COIL HEATING GAS 1,NODE 151,NODE 152,Air Nodes
 Component Set,4,BRANCH,BRANCH {A31E51AE-DE98-43B2-AFA0-0A21EACA4CFD},FAN:CONSTANTVOLUME,FAN CONSTANT VOLUME 1,NODE 152,NODE 144,Air Nodes
 Component Set,5,BRANCH,BRANCH {42BB0641-83AE-43FF-BBCE-B8D4B60786CC},AIRLOOPHVAC:OUTDOORAIRSYSTEM,AIR LOOP HVAC OUTDOOR AIR SYSTEM 5,NODE 154,NODE 161,Air Nodes
 Component Set,6,BRANCH,BRANCH {42BB0641-83AE-43FF-BBCE-B8D4B60786CC},COILSYSTEM:COOLING:DX,COIL COOLING DX TWO SPEED 1 COILSYSTEM,NODE 161,NODE 162,Air Nodes
 Component Set,7,BRANCH,BRANCH {42BB0641-83AE-43FF-BBCE-B8D4B60786CC},COIL:HEATING:ELECTRIC,COIL HEATING ELECTRIC 1,NODE 162,NODE 163,Air Nodes
 Component Set,8,BRANCH,BRANCH {42BB0641-83AE-43FF-BBCE-B8D4B60786CC},FAN:VARIABLEVOLUME,FAN VARIABLE VOLUME 3,NODE 163,NODE 155,Air Nodes
 Component Set,9,BRANCH,BRANCH {39A8AE21-E98C-41B5-935A-8ECC24144E1B},AIRLOOPHVAC:OUTDOORAIRSYSTEM,AIR LOOP HVAC OUTDOOR AIR SYSTEM 1,NODE 14,NODE 21,Air Nodes
 Component Set,10,BRANCH,BRANCH {39A8AE21-E98C-41B5-935A-8ECC24144E1B},COIL:COOLING:WATER,COIL COOLING WATER 1,NODE 21,NODE 22,Air Nodes
 Component Set,11,BRANCH,BRANCH {39A8AE21-E98C-41B5-935A-8ECC24144E1B},COIL:HEATING:WATER,COIL HEATING WATER 1,NODE 22,NODE 23,Air Nodes
 Component Set,12,BRANCH,BRANCH {39A8AE21-E98C-41B5-935A-8ECC24144E1B},FAN:VARIABLEVOLUME,FAN VARIABLE VOLUME 1,NODE 23,NODE 15,Air Nodes
 Component Set,13,BRANCH,BRANCH {F9E8411D-498F-4DAE-BE62-E072197485A0},AIRLOOPHVAC:OUTDOORAIRSYSTEM,AIR LOOP HVAC OUTDOOR AIR SYSTEM 2,NODE 81,NODE 88,Air Nodes
 Component Set,14,BRANCH,BRANCH {F9E8411D-498F-4DAE-BE62-E072197485A0},COIL:COOLING:WATER,COIL COOLING WATER 2,NODE 88,NODE 89,Air Nodes
 Component Set,15,BRANCH,BRANCH {F9E8411D-498F-4DAE-BE62-E072197485A0},COIL:HEATING:WATER,COIL HEATING WATER 2,NODE 89,NODE 90,Air Nodes
 Component Set,16,BRANCH,BRANCH {F9E8411D-498F-4DAE-BE62-E072197485A0},FAN:VARIABLEVOLUME,FAN VARIABLE VOLUME 2,NODE 90,NODE 82,Air Nodes
 Component Set,17,BRANCH,BRANCH {B091C554-7A6D-4C95-9911-5219ED0B6312},AIRLOOPHVAC:OUTDOORAIRSYSTEM,AIR LOOP HVAC OUTDOOR AIR SYSTEM 3,NODE 109,NODE 117,Air Nodes
 Component Set,18,BRANCH,BRANCH {B091C554-7A6D-4C95-9911-5219ED0B6312},COIL:COOLING:WATER,OS:COIL:COOLING:WATER 1,NODE 117,NODE 118,Air Nodes
 Component Set,19,BRANCH,BRANCH {B091C554-7A6D-4C95-9911-5219ED0B6312},COIL:HEATING:WATER,OS:COIL:HEATING:WATER 2,NODE 118,NODE 119,Air Nodes
 Component Set,20,BRANCH,BRANCH {B091C554-7A6D-4C95-9911-5219ED0B6312},FAN:VARIABLEVOLUME,VARIABLE SPEED FAN,NODE 119,NODE 110,Air Nodes
 Component Set,21,BRANCH,CHILLED WATER LOOP SUPPLY INLET BRANCH,PUMP:VARIABLESPEED,PUMP VARIABLE SPEED 2,NODE 40,NODE 46,Water Nodes
 Component Set,22,BRANCH,CHILLED WATER LOOP SUPPLY BRANCH 1,CHILLER:ELECTRIC:EIR,CHILLER ELECTRIC EIR 1,NODE 42,NODE 47,Chilled Water Nodes
 Component Set,23,BRANCH,CHILLED WATER LOOP SUPPLY BRANCH 2,PIPE:ADIABATIC,PIPE ADIABATIC 6,NODE 48,NODE 49,Pipe Nodes
 Component Set,24,BRANCH,CHILLED WATER LOOP SUPPLY OUTLET BRANCH,PIPE:ADIABATIC,PIPE ADIABATIC 7,NODE 50,NODE 41,Pipe Nodes
 Component Set,25,BRANCH,CHILLED WATER LOOP DEMAND INLET BRANCH,PIPE:ADIABATIC,PIPE ADIABATIC 9,NODE 43,NODE 57,Pipe Nodes
 Component Set,26,BRANCH,CHILLED WATER LOOP DEMAND BRANCH 1,COIL:COOLING:WATER,COIL COOLING WATER 1,NODE 45,NODE 51,Water Nodes
 Component Set,27,BRANCH,CHILLED WATER LOOP DEMAND BRANCH 2,PIPE:ADIABATIC,PIPE ADIABATIC 8,NODE 53,NODE 54,Pipe Nodes
 Component Set,28,BRANCH,CHILLED WATER LOOP DEMAND BRANCH 3,COIL:COOLING:WATER,COIL COOLING WATER 2,NODE 91,NODE 92,Water Nodes
 Component Set,29,BRANCH,CHILLED WATER LOOP DEMAND BRANCH 4,COIL:COOLING:WATER,OS:COIL:COOLING:WATER 1,NODE 127,NODE 128,Water Nodes
 Component Set,30,BRANCH,CHILLED WATER LOOP DEMAND BYPASS BRANCH,PIPE:ADIABATIC,CHILLED WATER LOOP DEMAND BYPASS PIPE,CHILLED WATER LOOP DEMAND BYPASS PIPE INLET NODE,CHILLED WATER LOOP DEMAND BYPASS PIPE OUTLET NODE,Pipe Nodes
 Component Set,31,BRANCH,CHILLED WATER LOOP DEMAND OUTLET BRANCH,PIPE:ADIABATIC,PIPE ADIABATIC 10,NODE 58,NODE 44,Pipe Nodes
 Component Set,32,BRANCH,CONDENSER WATER LOOP SUPPLY INLET BRANCH,PUMP:VARIABLESPEED,PUMP VARIABLE SPEED 3,NODE 59,NODE 69,Water Nodes
 Component Set,33,BRANCH,CONDENSER WATER LOOP SUPPLY BRANCH 1,COOLINGTOWER:SINGLESPEED,COOLING TOWER SINGLE SPEED 1,NODE 61,NODE 65,Chilled Water Nodes
 Component Set,34,BRANCH,CONDENSER WATER LOOP SUPPLY BRANCH 2,PIPE:ADIABATIC,PIPE ADIABATIC 11,NODE 66,NODE 67,Pipe Nodes
 Component Set,35,BRANCH,CONDENSER WATER LOOP SUPPLY OUTLET BRANCH,PIPE:ADIABATIC,PIPE ADIABATIC 12,NODE 68,NODE 60,Pipe Nodes
 Component Set,36,BRANCH,CONDENSER WATER LOOP DEMAND INLET BRANCH,PIPE:ADIABATIC,PIPE ADIABATIC 14,NODE 62,NODE 73,Pipe Nodes
 Component Set,37,BRANCH,CONDENSER WATER LOOP DEMAND BRANCH 1,CHILLER:ELECTRIC:EIR,CHILLER ELECTRIC EIR 1,NODE 64,NODE 70,Condenser Water Nodes
 Component Set,38,BRANCH,CONDENSER WATER LOOP DEMAND BRANCH 2,PIPE:ADIABATIC,PIPE ADIABATIC 13,NODE 71,NODE 72,Pipe Nodes
 Component Set,39,BRANCH,CONDENSER WATER LOOP DEMAND BYPASS BRANCH,PIPE:ADIABATIC,CONDENSER WATER LOOP DEMAND BYPASS PIPE,CONDENSER WATER LOOP DEMAND BYPASS PIPE INLET NODE,CONDENSER WATER LOOP DEMAND BYPASS PIPE OUTLET NODE,Pipe Nodes
 Component Set,40,BRANCH,CONDENSER WATER LOOP DEMAND OUTLET BRANCH,PIPE:ADIABATIC,PIPE ADIABATIC 15,NODE 74,NODE 63,Pipe Nodes
 Component Set,41,BRANCH,HOT WATER LOOP SUPPLY INLET BRANCH,PUMP:VARIABLESPEED,PUMP VARIABLE SPEED 1,NODE 24,NODE 30,Water Nodes
 Component Set,42,BRANCH,HOT WATER LOOP SUPPLY BRANCH 1,BOILER:HOTWATER,BOILER HOT WATER 1,NODE 26,NODE 31,Hot Water Nodes
 Component Set,43,BRANCH,HOT WATER LOOP SUPPLY BRANCH 2,PIPE:ADIABATIC,PIPE ADIABATIC 1,NODE 32,NODE 33,Pipe Nodes
 Component Set,44,BRANCH,HOT WATER LOOP SUPPLY OUTLET BRANCH,PIPE:ADIABATIC,PIPE ADIABATIC 5,NODE 39,NODE 25,Pipe Nodes
 Component Set,45,BRANCH,HOT WATER LOOP DEMAND INLET BRANCH,PIPE:ADIABATIC,PIPE ADIABATIC 3,NODE 27,NODE 38,Pipe Nodes
 Component Set,46,BRANCH,HOT WATER LOOP DEMAND BRANCH 1,PIPE:ADIABATIC,PIPE ADIABATIC 2,NODE 29,NODE 34,Pipe Nodes
 Component Set,47,BRANCH,HOT WATER LOOP DEMAND BRANCH 2,COIL:HEATING:WATER,COIL HEATING WATER 1,NODE 35,NODE 36,Water Nodes
 Component Set,48,BRANCH,HOT WATER LOOP DEMAND BRANCH 3,COIL:HEATING:WATER,COIL HEATING WATER 3,NODE 56,NODE 75,Water Nodes
 Component Set,49,BRANCH,HOT WATER LOOP DEMAND BRANCH 4,COIL:HEATING:WATER,COIL HEATING WATER 4,NODE 79,NODE 80,Water Nodes
 Component Set,50,BRANCH,HOT WATER LOOP DEMAND BRANCH 5,COIL:HEATING:WATER,COIL HEATING WATER 2,NODE 93,NODE 94,Water Nodes
 Component Set,51,BRANCH,HOT WATER LOOP DEMAND BRANCH 6,COIL:HEATING:WATER,COIL HEATING WATER 6,NODE 103,NODE 104,Water Nodes
 Component Set,52,BRANCH,HOT WATER LOOP DEMAND BRANCH 7,COIL:HEATING:WATER,COIL HEATING WATER 7,NODE 105,NODE 106,Water Nodes
 Component Set,53,BRANCH,HOT WATER LOOP DEMAND BRANCH 8,COIL:HEATING:WATER,COIL HEATING WATER 8,NODE 107,NODE 108,Water Nodes
 Component Set,54,BRANCH,HOT WATER LOOP DEMAND BRANCH 9,COIL:HEATING:WATER,OS:COIL:HEATING:WATER 2,NODE 129,NODE 130,Water Nodes
 Component Set,55,BRANCH,HOT WATER LOOP DEMAND BRANCH 10,COIL:HEATING:WATER,OS:COIL:HEATING:WATER 1,NODE 135,NODE 136,Water Nodes
 Component Set,56,BRANCH,HOT WATER LOOP DEMAND BRANCH 11,COIL:HEATING:WATER,OS:COIL:HEATING:WATER 3,NODE 137,NODE 138,Water Nodes
 Component Set,57,BRANCH,HOT WATER LOOP DEMAND BRANCH 12,COIL:HEATING:WATER,OS:COIL:HEATING:WATER 4,NODE 139,NODE 140,Water Nodes
 Component Set,58,BRANCH,HOT WATER LOOP DEMAND BRANCH 13,COIL:HEATING:WATER,OS:COIL:HEATING:WATER 5,NODE 141,NODE 142,Water Nodes
 Component Set,59,BRANCH,HOT WATER LOOP DEMAND BYPASS BRANCH,PIPE:ADIABATIC,HOT WATER LOOP DEMAND BYPASS PIPE,HOT WATER LOOP DEMAND BYPASS PIPE INLET NODE,HOT WATER LOOP DEMAND BYPASS PIPE OUTLET NODE,Pipe Nodes
 Component Set,60,BRANCH,HOT WATER LOOP DEMAND OUTLET BRANCH,PIPE:ADIABATIC,PIPE ADIABATIC 4,NODE 37,NODE 28,Pipe Nodes
 Component Set,61,ZONEHVAC:AIRDISTRIBUTIONUNIT,ZONEHVAC:AIRDISTRIBUTIONUNIT {096F2EB2-F120-4C62-97A7-3E562B8488D7},AIRTERMINAL:SINGLEDUCT:VAV:REHEAT,AIR TERMINAL SINGLE DUCT VAV REHEAT 2,NODE 55,NODE 18,Air Nodes
 Component Set,62,ZONEHVAC:AIRDISTRIBUTIONUNIT,ZONEHVAC:AIRDISTRIBUTIONUNIT {A61CD91C-C8DF-4A9A-AF29-73E7888418F9},AIRTERMINAL:SINGLEDUCT:VAV:REHEAT,AIR TERMINAL SINGLE DUCT VAV REHEAT 3,NODE 78,NODE 76,Air Nodes
 Component Set,63,ZONEHVAC:AIRDISTRIBUTIONUNIT,ZONEHVAC:AIRDISTRIBUTIONUNIT {2E210240-BE18-41ED-8AE8-89091371F9AA},AIRTERMINAL:SINGLEDUCT:VAV:REHEAT,AIR TERMINAL SINGLE DUCT VAV REHEAT 4,NODE 96,NODE 85,Air Nodes
 Component Set,64,ZONEHVAC:AIRDISTRIBUTIONUNIT,ZONEHVAC:AIRDISTRIBUTIONUNIT {F7680F22-8558-4B2B-BE32-1ED69158B24D},AIRTERMINAL:SINGLEDUCT:VAV:REHEAT,AIR TERMINAL SINGLE DUCT VAV REHEAT 5,NODE 99,NODE 97,Air Nodes
 Component Set,65,ZONEHVAC:AIRDISTRIBUTIONUNIT,ZONEHVAC:AIRDISTRIBUTIONUNIT {20343224-F0F1-4093-AFE0-858830ABD6B6},AIRTERMINAL:SINGLEDUCT:VAV:REHEAT,AIR TERMINAL SINGLE DUCT VAV REHEAT 6,NODE 102,NODE 100,Air Nodes
 Component Set,66,ZONEHVAC:AIRDISTRIBUTIONUNIT,ZONEHVAC:AIRDISTRIBUTIONUNIT {7DB8B99A-D648-4CDB-861C-8652E9AB1A10},AIRTERMINAL:SINGLEDUCT:VAV:REHEAT,AIRTERMINAL WITH HOT WATER REHEAT,NODE 131,NODE 113,Air Nodes
 Component Set,67,ZONEHVAC:AIRDISTRIBUTIONUNIT,ZONEHVAC:AIRDISTRIBUTIONUNIT {AE87F079-74D8-42D3-9222-0398EF3F676D},AIRTERMINAL:SINGLEDUCT:VAV:REHEAT,AIRTERMINAL WITH HOT WATER REHEAT 1,NODE 132,NODE 121,Air Nodes
 Component Set,68,ZONEHVAC:AIRDISTRIBUTIONUNIT,ZONEHVAC:AIRDISTRIBUTIONUNIT {93F1014D-7073-4C03-8C64-AEE76BAEC670},AIRTERMINAL:SINGLEDUCT:VAV:REHEAT,AIRTERMINAL WITH HOT WATER REHEAT 2,NODE 133,NODE 123,Air Nodes
 Component Set,69,ZONEHVAC:AIRDISTRIBUTIONUNIT,ZONEHVAC:AIRDISTRIBUTIONUNIT {8B8E72EF-6639-4819-A677-79362B97EF62},AIRTERMINAL:SINGLEDUCT:VAV:REHEAT,AIRTERMINAL WITH HOT WATER REHEAT 3,NODE 134,NODE 125,Air Nodes
 Component Set,70,ZONEHVAC:AIRDISTRIBUTIONUNIT,AIR TERMINAL SINGLE DUCT PARALLEL PIU REHEAT 2 AIR DISTRIBUTION UNIT,AIRTERMINAL:SINGLEDUCT:PARALLELPIU:REHEAT,AIR TERMINAL SINGLE DUCT PARALLEL PIU REHEAT 2,NODE 165,NODE 158,Air Nodes
 Component Set,71,AIRTERMINAL:SINGLEDUCT:VAV:REHEAT,AIR TERMINAL SINGLE DUCT VAV REHEAT 2,COIL:HEATING:WATER,COIL HEATING WATER 3,AIR TERMINAL SINGLE DUCT VAV REHEAT 2 DAMPER OUTLET,NODE 18,Air Nodes
 Component Set,72,AIRTERMINAL:SINGLEDUCT:VAV:REHEAT,AIR TERMINAL SINGLE DUCT VAV REHEAT 3,COIL:HEATING:WATER,COIL HEATING WATER 4,AIR TERMINAL SINGLE DUCT VAV REHEAT 3 DAMPER OUTLET,NODE 76,Air Nodes
 Component Set,73,AIRTERMINAL:SINGLEDUCT:VAV:REHEAT,AIR TERMINAL SINGLE DUCT VAV REHEAT 4,COIL:HEATING:WATER,COIL HEATING WATER 6,AIR TERMINAL SINGLE DUCT VAV REHEAT 4 DAMPER OUTLET,NODE 85,Air Nodes
 Component Set,74,AIRTERMINAL:SINGLEDUCT:VAV:REHEAT,AIR TERMINAL SINGLE DUCT VAV REHEAT 5,COIL:HEATING:WATER,COIL HEATING WATER 7,AIR TERMINAL SINGLE DUCT VAV REHEAT 5 DAMPER OUTLET,NODE 97,Air Nodes
 Component Set,75,AIRTERMINAL:SINGLEDUCT:VAV:REHEAT,AIR TERMINAL SINGLE DUCT VAV REHEAT 6,COIL:HEATING:WATER,COIL HEATING WATER 8,AIR TERMINAL SINGLE DUCT VAV REHEAT 6 DAMPER OUTLET,NODE 100,Air Nodes
 Component Set,76,AIRTERMINAL:SINGLEDUCT:VAV:REHEAT,AIRTERMINAL WITH HOT WATER REHEAT,COIL:HEATING:WATER,OS:COIL:HEATING:WATER 1,AIRTERMINAL WITH HOT WATER REHEAT DAMPER OUTLET,NODE 113,Air Nodes
 Component Set,77,AIRTERMINAL:SINGLEDUCT:VAV:REHEAT,AIRTERMINAL WITH HOT WATER REHEAT 1,COIL:HEATING:WATER,OS:COIL:HEATING:WATER 3,AIRTERMINAL WITH HOT WATER REHEAT 1 DAMPER OUTLET,NODE 121,Air Nodes
 Component Set,78,AIRTERMINAL:SINGLEDUCT:VAV:REHEAT,AIRTERMINAL WITH HOT WATER REHEAT 2,COIL:HEATING:WATER,OS:COIL:HEATING:WATER 4,AIRTERMINAL WITH HOT WATER REHEAT 2 DAMPER OUTLET,NODE 123,Air Nodes
 Component Set,79,AIRTERMINAL:SINGLEDUCT:VAV:REHEAT,AIRTERMINAL WITH HOT WATER REHEAT 3,COIL:HEATING:WATER,OS:COIL:HEATING:WATER 5,AIRTERMINAL WITH HOT WATER REHEAT 3 DAMPER OUTLET,NODE 125,Air Nodes
 Component Set,80,ZONEHVAC:PACKAGEDTERMINALHEATPUMP,OS:ZONEHVAC:PACKAGEDTERMINALHEATPUMP 3RD FLOOR GUEST,OUTDOORAIR:MIXER,OS:ZONEHVAC:PACKAGEDTERMINALHEATPUMP 3RD FLOOR GUEST OA MIXER,OS:ZONEHVAC:PACKAGEDTERMINALHEATPUMP 3RD FLOOR GUEST OA NODE,OS:ZONEHVAC:PACKAGEDTERMINALHEATPUMP 3RD FLOOR GUEST MIXED AIR NODE,Air Nodes
 Component Set,81,ZONEHVAC:PACKAGEDTERMINALHEATPUMP,OS:ZONEHVAC:PACKAGEDTERMINALHEATPUMP 4TH FLOOR GUEST,OUTDOORAIR:MIXER,OS:ZONEHVAC:PACKAGEDTERMINALHEATPUMP 4TH FLOOR GUEST OA MIXER,OS:ZONEHVAC:PACKAGEDTERMINALHEATPUMP 4TH FLOOR GUEST OA NODE,OS:ZONEHVAC:PACKAGEDTERMINALHEATPUMP 4TH FLOOR GUEST MIXED AIR NODE,Air Nodes
 Component Set,82,AIRLOOPHVAC:OUTDOORAIRSYSTEM,AIR LOOP HVAC OUTDOOR AIR SYSTEM 4,OUTDOORAIR:MIXER,OUTDOORAIR:MIXER {969B58E4-290B-40AE-8167-F6FB49C4B824},NODE 148,NODE 150,Air Nodes
 Component Set,83,AIRLOOPHVAC:OUTDOORAIRSYSTEM,AIR LOOP HVAC OUTDOOR AIR SYSTEM 5,OUTDOORAIR:MIXER,OUTDOORAIR:MIXER {A8AFF56C-8245-4BF5-86BA-A3184A3A161D},NODE 159,NODE 161,Air Nodes
 Component Set,84,AIRLOOPHVAC:OUTDOORAIRSYSTEM,AIR LOOP HVAC OUTDOOR AIR SYSTEM 1,OUTDOORAIR:MIXER,OUTDOORAIR:MIXER {3557B5D9-9869-4DE0-9267-DF85EF541B69},NODE 19,NODE 21,Air Nodes
 Component Set,85,AIRLOOPHVAC:OUTDOORAIRSYSTEM,AIR LOOP HVAC OUTDOOR AIR SYSTEM 2,OUTDOORAIR:MIXER,OUTDOORAIR:MIXER {2D1FFC25-AB01-41DC-A5F5-106824F710AA},NODE 86,NODE 88,Air Nodes
 Component Set,86,AIRLOOPHVAC:OUTDOORAIRSYSTEM,AIR LOOP HVAC OUTDOOR AIR SYSTEM 3,OUTDOORAIR:MIXER,OUTDOORAIR:MIXER {15874350-CDE4-47BE-8B16-7994B87D0DA3},NODE 115,NODE 117,Air Nodes
 Component Set,87,ZONEHVAC:PACKAGEDTERMINALHEATPUMP,OS:ZONEHVAC:PACKAGEDTERMINALHEATPUMP 3RD FLOOR GUEST,FAN:CONSTANTVOLUME,OS:FAN:CONSTANTVOLUME 3,OS:ZONEHVAC:PACKAGEDTERMINALHEATPUMP 3RD FLOOR GUEST HEATING COIL OUTLET NODE,OS:ZONEHVAC:PACKAGEDTERMINALHEATPUMP 3RD FLOOR GUEST FAN OUTLET NODE,Air Nodes
 Component Set,88,ZONEHVAC:PACKAGEDTERMINALHEATPUMP,OS:ZONEHVAC:PACKAGEDTERMINALHEATPUMP 4TH FLOOR GUEST,FAN:CONSTANTVOLUME,OS:FAN:CONSTANTVOLUME 4,OS:ZONEHVAC:PACKAGEDTERMINALHEATPUMP 4TH FLOOR GUEST HEATING COIL OUTLET NODE,OS:ZONEHVAC:PACKAGEDTERMINALHEATPUMP 4TH FLOOR GUEST FAN OUTLET NODE,Air Nodes
 Component Set,89,AIRTERMINAL:SINGLEDUCT:PARALLELPIU:REHEAT,AIR TERMINAL SINGLE DUCT PARALLEL PIU REHEAT 2,FAN:CONSTANTVOLUME,FAN CONSTANT VOLUME 3,NODE 166,AIR TERMINAL SINGLE DUCT PARALLEL PIU REHEAT 2 FAN OUTLET,Air Nodes
 Component Set,90,ZONEHVAC:PACKAGEDTERMINALHEATPUMP,OS:ZONEHVAC:PACKAGEDTERMINALHEATPUMP 3RD FLOOR GUEST,COIL:COOLING:DX:SINGLESPEED,OS:COIL:COOLING:DX:SINGLESPEED 3,OS:ZONEHVAC:PACKAGEDTERMINALHEATPUMP 3RD FLOOR GUEST MIXED AIR NODE,OS:ZONEHVAC:PACKAGEDTERMINALHEATPUMP 3RD FLOOR GUEST COOLING COIL OUTLET NODE,Air Nodes
 Component Set,91,ZONEHVAC:PACKAGEDTERMINALHEATPUMP,OS:ZONEHVAC:PACKAGEDTERMINALHEATPUMP 4TH FLOOR GUEST,COIL:COOLING:DX:SINGLESPEED,OS:COIL:COOLING:DX:SINGLESPEED 4,OS:ZONEHVAC:PACKAGEDTERMINALHEATPUMP 4TH FLOOR GUEST MIXED AIR NODE,OS:ZONEHVAC:PACKAGEDTERMINALHEATPUMP 4TH FLOOR GUEST COOLING COIL OUTLET NODE,Air Nodes
 Component Set,92,COILSYSTEM:COOLING:DX,COIL COOLING DX SINGLE SPEED 1 COILSYSTEM,COIL:COOLING:DX:SINGLESPEED,COIL COOLING DX SINGLE SPEED 1,NODE 150,NODE 151,Air Nodes
 Component Set,93,ZONEHVAC:PACKAGEDTERMINALHEATPUMP,OS:ZONEHVAC:PACKAGEDTERMINALHEATPUMP 3RD FLOOR GUEST,COIL:HEATING:DX:SINGLESPEED,OS:COIL:HEATING:DX:SINGLESPEED 2,OS:ZONEHVAC:PACKAGEDTERMINALHEATPUMP 3RD FLOOR GUEST COOLING COIL OUTLET NODE,OS:ZONEHVAC:PACKAGEDTERMINALHEATPUMP 3RD FLOOR GUEST HEATING COIL OUTLET NODE,Air Nodes
 Component Set,94,ZONEHVAC:PACKAGEDTERMINALHEATPUMP,OS:ZONEHVAC:PACKAGEDTERMINALHEATPUMP 4TH FLOOR GUEST,COIL:HEATING:DX:SINGLESPEED,OS:COIL:HEATING:DX:SINGLESPEED 3,OS:ZONEHVAC:PACKAGEDTERMINALHEATPUMP 4TH FLOOR GUEST COOLING COIL OUTLET NODE,OS:ZONEHVAC:PACKAGEDTERMINALHEATPUMP 4TH FLOOR GUEST HEATING COIL OUTLET NODE,Air Nodes
 Component Set,95,COILSYSTEM:COOLING:DX,COIL COOLING DX TWO SPEED 1 COILSYSTEM,COIL:COOLING:DX:TWOSPEED,COIL COOLING DX TWO SPEED 1,NODE 161,NODE 162,Air Nodes
 Component Set,96,ZONEHVAC:PACKAGEDTERMINALHEATPUMP,OS:ZONEHVAC:PACKAGEDTERMINALHEATPUMP 3RD FLOOR GUEST,COIL:HEATING:ELECTRIC,OS:COIL:HEATING:ELECTRIC 5,OS:ZONEHVAC:PACKAGEDTERMINALHEATPUMP 3RD FLOOR GUEST FAN OUTLET NODE,NODE 168,Air Nodes
 Component Set,97,ZONEHVAC:PACKAGEDTERMINALHEATPUMP,OS:ZONEHVAC:PACKAGEDTERMINALHEATPUMP 4TH FLOOR GUEST,COIL:HEATING:ELECTRIC,OS:COIL:HEATING:ELECTRIC 6,OS:ZONEHVAC:PACKAGEDTERMINALHEATPUMP 4TH FLOOR GUEST FAN OUTLET NODE,NODE 170,Air Nodes
 Component Set,98,AIRTERMINAL:SINGLEDUCT:PARALLELPIU:REHEAT,AIR TERMINAL SINGLE DUCT PARALLEL PIU REHEAT 2,COIL:HEATING:ELECTRIC,COIL HEATING ELECTRIC 3,AIR TERMINAL SINGLE DUCT PARALLEL PIU REHEAT 2 MIXER OUTLET,NODE 158,Air Nodes
! ===============================================================
! <# Plant Loops>,<Number of Plant Loops>
 #Plant Loops,3
! <Plant Loop>,<Plant Loop Name>,<Loop Type>,<Inlet Node Name>,<Outlet Node Name>,<Branch List>,<Connector List>
! <Plant Loop Connector>,<Connector Type>,<Connector Name>,<Loop Name>,<Loop Type>,<Number of Inlets/Outlets>
! <Plant Loop Connector Branches>,<Connector Node Count>,<Connector Type>,<Connector Name>,<Inlet Branch>,<Outlet Branch>,<Loop Name>,<Loop Type>
! <Plant Loop Connector Nodes>,<Connector Node Count>,<Connector Type>,<Connector Name>,<Inlet Node>,<Outlet Node>,<Loop Name>,<Loop Type>
! <Plant Loop Supply Connection>,<Plant Loop Name>,<Supply Side Outlet Node Name>,<Demand Side Inlet Node Name>
! <Plant Loop Return Connection>,<Plant Loop Name>,<Demand Side Outlet Node Name>,<Supply Side Inlet Node Name>
 Plant Loop,CHILLED WATER LOOP,Demand,NODE 43,NODE 44,CHILLED WATER LOOP DEMAND BRANCHES,CHILLED WATER LOOP DEMAND CONNECTOR LIST
   Plant Loop Connector,Splitter,CHILLED WATER LOOP DEMAND SPLITTER,CHILLED WATER LOOP,Demand,5
     Plant Loop Connector Branches,1,Splitter,CHILLED WATER LOOP DEMAND SPLITTER,CHILLED WATER LOOP DEMAND INLET BRANCH,CHILLED WATER LOOP DEMAND BRANCH 1,CHILLED WATER LOOP,Demand
     Plant Loop Connector Nodes,   1,Splitter,CHILLED WATER LOOP DEMAND SPLITTER,NODE 57,NODE 45,CHILLED WATER LOOP,Demand
     Plant Loop Connector Branches,2,Splitter,CHILLED WATER LOOP DEMAND SPLITTER,CHILLED WATER LOOP DEMAND INLET BRANCH,CHILLED WATER LOOP DEMAND BRANCH 2,CHILLED WATER LOOP,Demand
     Plant Loop Connector Nodes,   2,Splitter,CHILLED WATER LOOP DEMAND SPLITTER,NODE 57,NODE 53,CHILLED WATER LOOP,Demand
     Plant Loop Connector Branches,3,Splitter,CHILLED WATER LOOP DEMAND SPLITTER,CHILLED WATER LOOP DEMAND INLET BRANCH,CHILLED WATER LOOP DEMAND BRANCH 3,CHILLED WATER LOOP,Demand
     Plant Loop Connector Nodes,   3,Splitter,CHILLED WATER LOOP DEMAND SPLITTER,NODE 57,NODE 91,CHILLED WATER LOOP,Demand
     Plant Loop Connector Branches,4,Splitter,CHILLED WATER LOOP DEMAND SPLITTER,CHILLED WATER LOOP DEMAND INLET BRANCH,CHILLED WATER LOOP DEMAND BRANCH 4,CHILLED WATER LOOP,Demand
     Plant Loop Connector Nodes,   4,Splitter,CHILLED WATER LOOP DEMAND SPLITTER,NODE 57,NODE 127,CHILLED WATER LOOP,Demand
     Plant Loop Connector Branches,5,Splitter,CHILLED WATER LOOP DEMAND SPLITTER,CHILLED WATER LOOP DEMAND INLET BRANCH,CHILLED WATER LOOP DEMAND BYPASS BRANCH,CHILLED WATER LOOP,Demand
     Plant Loop Connector Nodes,   5,Splitter,CHILLED WATER LOOP DEMAND SPLITTER,NODE 57,CHILLED WATER LOOP DEMAND BYPASS PIPE INLET NODE,CHILLED WATER LOOP,Demand
   Plant Loop Connector,Mixer,CHILLED WATER LOOP DEMAND MIXER,CHILLED WATER LOOP,Demand,5
     Plant Loop Connector Branches,1,Mixer,CHILLED WATER LOOP DEMAND MIXER,CHILLED WATER LOOP DEMAND BRANCH 1,CHILLED WATER LOOP DEMAND OUTLET BRANCH,CHILLED WATER LOOP,Demand
     Plant Loop Connector Nodes,   1,Mixer,CHILLED WATER LOOP DEMAND MIXER,NODE 51,NODE 58,CHILLED WATER LOOP,Demand
     Plant Loop Connector Branches,2,Mixer,CHILLED WATER LOOP DEMAND MIXER,CHILLED WATER LOOP DEMAND BRANCH 2,CHILLED WATER LOOP DEMAND OUTLET BRANCH,CHILLED WATER LOOP,Demand
     Plant Loop Connector Nodes,   2,Mixer,CHILLED WATER LOOP DEMAND MIXER,NODE 54,NODE 58,CHILLED WATER LOOP,Demand
     Plant Loop Connector Branches,3,Mixer,CHILLED WATER LOOP DEMAND MIXER,CHILLED WATER LOOP DEMAND BRANCH 3,CHILLED WATER LOOP DEMAND OUTLET BRANCH,CHILLED WATER LOOP,Demand
     Plant Loop Connector Nodes,   3,Mixer,CHILLED WATER LOOP DEMAND MIXER,NODE 92,NODE 58,CHILLED WATER LOOP,Demand
     Plant Loop Connector Branches,4,Mixer,CHILLED WATER LOOP DEMAND MIXER,CHILLED WATER LOOP DEMAND BRANCH 4,CHILLED WATER LOOP DEMAND OUTLET BRANCH,CHILLED WATER LOOP,Demand
     Plant Loop Connector Nodes,   4,Mixer,CHILLED WATER LOOP DEMAND MIXER,NODE 128,NODE 58,CHILLED WATER LOOP,Demand
     Plant Loop Connector Branches,5,Mixer,CHILLED WATER LOOP DEMAND MIXER,CHILLED WATER LOOP DEMAND BYPASS BRANCH,CHILLED WATER LOOP DEMAND OUTLET BRANCH,CHILLED WATER LOOP,Demand
     Plant Loop Connector Nodes,   5,Mixer,CHILLED WATER LOOP DEMAND MIXER,CHILLED WATER LOOP DEMAND BYPASS PIPE OUTLET NODE,NODE 58,CHILLED WATER LOOP,Demand
 Plant Loop,CHILLED WATER LOOP,Supply,NODE 40,NODE 41,CHILLED WATER LOOP SUPPLY BRANCHES,CHILLED WATER LOOP SUPPLY CONNECTOR LIST
   Plant Loop Connector,Splitter,CHILLED WATER LOOP SUPPLY SPLITTER,CHILLED WATER LOOP,Supply,2
     Plant Loop Connector Branches,1,Splitter,CHILLED WATER LOOP SUPPLY SPLITTER,CHILLED WATER LOOP SUPPLY INLET BRANCH,CHILLED WATER LOOP SUPPLY BRANCH 1,CHILLED WATER LOOP,Supply
     Plant Loop Connector Nodes,   1,Splitter,CHILLED WATER LOOP SUPPLY SPLITTER,NODE 46,NODE 42,CHILLED WATER LOOP,Supply
     Plant Loop Connector Branches,2,Splitter,CHILLED WATER LOOP SUPPLY SPLITTER,CHILLED WATER LOOP SUPPLY INLET BRANCH,CHILLED WATER LOOP SUPPLY BRANCH 2,CHILLED WATER LOOP,Supply
     Plant Loop Connector Nodes,   2,Splitter,CHILLED WATER LOOP SUPPLY SPLITTER,NODE 46,NODE 48,CHILLED WATER LOOP,Supply
   Plant Loop Connector,Mixer,CHILLED WATER LOOP SUPPLY MIXER,CHILLED WATER LOOP,Supply,2
     Plant Loop Connector Branches,1,Mixer,CHILLED WATER LOOP SUPPLY MIXER,CHILLED WATER LOOP SUPPLY BRANCH 1,CHILLED WATER LOOP SUPPLY OUTLET BRANCH,CHILLED WATER LOOP,Supply
     Plant Loop Connector Nodes,   1,Mixer,CHILLED WATER LOOP SUPPLY MIXER,NODE 47,NODE 50,CHILLED WATER LOOP,Supply
     Plant Loop Connector Branches,2,Mixer,CHILLED WATER LOOP SUPPLY MIXER,CHILLED WATER LOOP SUPPLY BRANCH 2,CHILLED WATER LOOP SUPPLY OUTLET BRANCH,CHILLED WATER LOOP,Supply
     Plant Loop Connector Nodes,   2,Mixer,CHILLED WATER LOOP SUPPLY MIXER,NODE 49,NODE 50,CHILLED WATER LOOP,Supply
 Plant Loop Supply Connection,CHILLED WATER LOOP,NODE 41,NODE 43
 Plant Loop Return Connection,CHILLED WATER LOOP,NODE 44,NODE 40
 Plant Loop,CONDENSER WATER LOOP,Demand,NODE 62,NODE 63,CONDENSER WATER LOOP DEMAND BRANCHES,CONDENSER WATER LOOP DEMAND CONNECTOR LIST
   Plant Loop Connector,Splitter,CONDENSER WATER LOOP DEMAND SPLITTER,CONDENSER WATER LOOP,Demand,3
     Plant Loop Connector Branches,1,Splitter,CONDENSER WATER LOOP DEMAND SPLITTER,CONDENSER WATER LOOP DEMAND INLET BRANCH,CONDENSER WATER LOOP DEMAND BRANCH 1,CONDENSER WATER LOOP,Demand
     Plant Loop Connector Nodes,   1,Splitter,CONDENSER WATER LOOP DEMAND SPLITTER,NODE 73,NODE 64,CONDENSER WATER LOOP,Demand
     Plant Loop Connector Branches,2,Splitter,CONDENSER WATER LOOP DEMAND SPLITTER,CONDENSER WATER LOOP DEMAND INLET BRANCH,CONDENSER WATER LOOP DEMAND BRANCH 2,CONDENSER WATER LOOP,Demand
     Plant Loop Connector Nodes,   2,Splitter,CONDENSER WATER LOOP DEMAND SPLITTER,NODE 73,NODE 71,CONDENSER WATER LOOP,Demand
     Plant Loop Connector Branches,3,Splitter,CONDENSER WATER LOOP DEMAND SPLITTER,CONDENSER WATER LOOP DEMAND INLET BRANCH,CONDENSER WATER LOOP DEMAND BYPASS BRANCH,CONDENSER WATER LOOP,Demand
     Plant Loop Connector Nodes,   3,Splitter,CONDENSER WATER LOOP DEMAND SPLITTER,NODE 73,CONDENSER WATER LOOP DEMAND BYPASS PIPE INLET NODE,CONDENSER WATER LOOP,Demand
   Plant Loop Connector,Mixer,CONDENSER WATER LOOP DEMAND MIXER,CONDENSER WATER LOOP,Demand,3
     Plant Loop Connector Branches,1,Mixer,CONDENSER WATER LOOP DEMAND MIXER,CONDENSER WATER LOOP DEMAND BRANCH 1,CONDENSER WATER LOOP DEMAND OUTLET BRANCH,CONDENSER WATER LOOP,Demand
     Plant Loop Connector Nodes,   1,Mixer,CONDENSER WATER LOOP DEMAND MIXER,NODE 70,NODE 74,CONDENSER WATER LOOP,Demand
     Plant Loop Connector Branches,2,Mixer,CONDENSER WATER LOOP DEMAND MIXER,CONDENSER WATER LOOP DEMAND BRANCH 2,CONDENSER WATER LOOP DEMAND OUTLET BRANCH,CONDENSER WATER LOOP,Demand
     Plant Loop Connector Nodes,   2,Mixer,CONDENSER WATER LOOP DEMAND MIXER,NODE 72,NODE 74,CONDENSER WATER LOOP,Demand
     Plant Loop Connector Branches,3,Mixer,CONDENSER WATER LOOP DEMAND MIXER,CONDENSER WATER LOOP DEMAND BYPASS BRANCH,CONDENSER WATER LOOP DEMAND OUTLET BRANCH,CONDENSER WATER LOOP,Demand
     Plant Loop Connector Nodes,   3,Mixer,CONDENSER WATER LOOP DEMAND MIXER,CONDENSER WATER LOOP DEMAND BYPASS PIPE OUTLET NODE,NODE 74,CONDENSER WATER LOOP,Demand
 Plant Loop,CONDENSER WATER LOOP,Supply,NODE 59,NODE 60,CONDENSER WATER LOOP SUPPLY BRANCHES,CONDENSER WATER LOOP SUPPLY CONNECTOR LIST
   Plant Loop Connector,Splitter,CONDENSER WATER LOOP SUPPLY SPLITTER,CONDENSER WATER LOOP,Supply,2
     Plant Loop Connector Branches,1,Splitter,CONDENSER WATER LOOP SUPPLY SPLITTER,CONDENSER WATER LOOP SUPPLY INLET BRANCH,CONDENSER WATER LOOP SUPPLY BRANCH 1,CONDENSER WATER LOOP,Supply
     Plant Loop Connector Nodes,   1,Splitter,CONDENSER WATER LOOP SUPPLY SPLITTER,NODE 69,NODE 61,CONDENSER WATER LOOP,Supply
     Plant Loop Connector Branches,2,Splitter,CONDENSER WATER LOOP SUPPLY SPLITTER,CONDENSER WATER LOOP SUPPLY INLET BRANCH,CONDENSER WATER LOOP SUPPLY BRANCH 2,CONDENSER WATER LOOP,Supply
     Plant Loop Connector Nodes,   2,Splitter,CONDENSER WATER LOOP SUPPLY SPLITTER,NODE 69,NODE 66,CONDENSER WATER LOOP,Supply
   Plant Loop Connector,Mixer,CONDENSER WATER LOOP SUPPLY MIXER,CONDENSER WATER LOOP,Supply,2
     Plant Loop Connector Branches,1,Mixer,CONDENSER WATER LOOP SUPPLY MIXER,CONDENSER WATER LOOP SUPPLY BRANCH 1,CONDENSER WATER LOOP SUPPLY OUTLET BRANCH,CONDENSER WATER LOOP,Supply
     Plant Loop Connector Nodes,   1,Mixer,CONDENSER WATER LOOP SUPPLY MIXER,NODE 65,NODE 68,CONDENSER WATER LOOP,Supply
     Plant Loop Connector Branches,2,Mixer,CONDENSER WATER LOOP SUPPLY MIXER,CONDENSER WATER LOOP SUPPLY BRANCH 2,CONDENSER WATER LOOP SUPPLY OUTLET BRANCH,CONDENSER WATER LOOP,Supply
     Plant Loop Connector Nodes,   2,Mixer,CONDENSER WATER LOOP SUPPLY MIXER,NODE 67,NODE 68,CONDENSER WATER LOOP,Supply
 Plant Loop Supply Connection,CONDENSER WATER LOOP,NODE 60,NODE 62
 Plant Loop Return Connection,CONDENSER WATER LOOP,NODE 63,NODE 59
 Plant Loop,HOT WATER LOOP,Demand,NODE 27,NODE 28,HOT WATER LOOP DEMAND BRANCHES,HOT WATER LOOP DEMAND CONNECTOR LIST
   Plant Loop Connector,Splitter,HOT WATER LOOP DEMAND SPLITTER,HOT WATER LOOP,Demand,14
     Plant Loop Connector Branches,1,Splitter,HOT WATER LOOP DEMAND SPLITTER,HOT WATER LOOP DEMAND INLET BRANCH,HOT WATER LOOP DEMAND BRANCH 1,HOT WATER LOOP,Demand
     Plant Loop Connector Nodes,   1,Splitter,HOT WATER LOOP DEMAND SPLITTER,NODE 38,NODE 29,HOT WATER LOOP,Demand
     Plant Loop Connector Branches,2,Splitter,HOT WATER LOOP DEMAND SPLITTER,HOT WATER LOOP DEMAND INLET BRANCH,HOT WATER LOOP DEMAND BRANCH 2,HOT WATER LOOP,Demand
     Plant Loop Connector Nodes,   2,Splitter,HOT WATER LOOP DEMAND SPLITTER,NODE 38,NODE 35,HOT WATER LOOP,Demand
     Plant Loop Connector Branches,3,Splitter,HOT WATER LOOP DEMAND SPLITTER,HOT WATER LOOP DEMAND INLET BRANCH,HOT WATER LOOP DEMAND BRANCH 3,HOT WATER LOOP,Demand
     Plant Loop Connector Nodes,   3,Splitter,HOT WATER LOOP DEMAND SPLITTER,NODE 38,NODE 56,HOT WATER LOOP,Demand
     Plant Loop Connector Branches,4,Splitter,HOT WATER LOOP DEMAND SPLITTER,HOT WATER LOOP DEMAND INLET BRANCH,HOT WATER LOOP DEMAND BRANCH 4,HOT WATER LOOP,Demand
     Plant Loop Connector Nodes,   4,Splitter,HOT WATER LOOP DEMAND SPLITTER,NODE 38,NODE 79,HOT WATER LOOP,Demand
     Plant Loop Connector Branches,5,Splitter,HOT WATER LOOP DEMAND SPLITTER,HOT WATER LOOP DEMAND INLET BRANCH,HOT WATER LOOP DEMAND BRANCH 5,HOT WATER LOOP,Demand
     Plant Loop Connector Nodes,   5,Splitter,HOT WATER LOOP DEMAND SPLITTER,NODE 38,NODE 93,HOT WATER LOOP,Demand
     Plant Loop Connector Branches,6,Splitter,HOT WATER LOOP DEMAND SPLITTER,HOT WATER LOOP DEMAND INLET BRANCH,HOT WATER LOOP DEMAND BRANCH 6,HOT WATER LOOP,Demand
     Plant Loop Connector Nodes,   6,Splitter,HOT WATER LOOP DEMAND SPLITTER,NODE 38,NODE 103,HOT WATER LOOP,Demand
     Plant Loop Connector Branches,7,Splitter,HOT WATER LOOP DEMAND SPLITTER,HOT WATER LOOP DEMAND INLET BRANCH,HOT WATER LOOP DEMAND BRANCH 7,HOT WATER LOOP,Demand
     Plant Loop Connector Nodes,   7,Splitter,HOT WATER LOOP DEMAND SPLITTER,NODE 38,NODE 105,HOT WATER LOOP,Demand
     Plant Loop Connector Branches,8,Splitter,HOT WATER LOOP DEMAND SPLITTER,HOT WATER LOOP DEMAND INLET BRANCH,HOT WATER LOOP DEMAND BRANCH 8,HOT WATER LOOP,Demand
     Plant Loop Connector Nodes,   8,Splitter,HOT WATER LOOP DEMAND SPLITTER,NODE 38,NODE 107,HOT WATER LOOP,Demand
     Plant Loop Connector Branches,9,Splitter,HOT WATER LOOP DEMAND SPLITTER,HOT WATER LOOP DEMAND INLET BRANCH,HOT WATER LOOP DEMAND BRANCH 9,HOT WATER LOOP,Demand
     Plant Loop Connector Nodes,   9,Splitter,HOT WATER LOOP DEMAND SPLITTER,NODE 38,NODE 129,HOT WATER LOOP,Demand
     Plant Loop Connector Branches,10,Splitter,HOT WATER LOOP DEMAND SPLITTER,HOT WATER LOOP DEMAND INLET BRANCH,HOT WATER LOOP DEMAND BRANCH 10,HOT WATER LOOP,Demand
     Plant Loop Connector Nodes,   10,Splitter,HOT WATER LOOP DEMAND SPLITTER,NODE 38,NODE 135,HOT WATER LOOP,Demand
     Plant Loop Connector Branches,11,Splitter,HOT WATER LOOP DEMAND SPLITTER,HOT WATER LOOP DEMAND INLET BRANCH,HOT WATER LOOP DEMAND BRANCH 11,HOT WATER LOOP,Demand
     Plant Loop Connector Nodes,   11,Splitter,HOT WATER LOOP DEMAND SPLITTER,NODE 38,NODE 137,HOT WATER LOOP,Demand
     Plant Loop Connector Branches,12,Splitter,HOT WATER LOOP DEMAND SPLITTER,HOT WATER LOOP DEMAND INLET BRANCH,HOT WATER LOOP DEMAND BRANCH 12,HOT WATER LOOP,Demand
     Plant Loop Connector Nodes,   12,Splitter,HOT WATER LOOP DEMAND SPLITTER,NODE 38,NODE 139,HOT WATER LOOP,Demand
     Plant Loop Connector Branches,13,Splitter,HOT WATER LOOP DEMAND SPLITTER,HOT WATER LOOP DEMAND INLET BRANCH,HOT WATER LOOP DEMAND BRANCH 13,HOT WATER LOOP,Demand
     Plant Loop Connector Nodes,   13,Splitter,HOT WATER LOOP DEMAND SPLITTER,NODE 38,NODE 141,HOT WATER LOOP,Demand
     Plant Loop Connector Branches,14,Splitter,HOT WATER LOOP DEMAND SPLITTER,HOT WATER LOOP DEMAND INLET BRANCH,HOT WATER LOOP DEMAND BYPASS BRANCH,HOT WATER LOOP,Demand
     Plant Loop Connector Nodes,   14,Splitter,HOT WATER LOOP DEMAND SPLITTER,NODE 38,HOT WATER LOOP DEMAND BYPASS PIPE INLET NODE,HOT WATER LOOP,Demand
   Plant Loop Connector,Mixer,HOT WATER LOOP DEMAND MIXER,HOT WATER LOOP,Demand,14
     Plant Loop Connector Branches,1,Mixer,HOT WATER LOOP DEMAND MIXER,HOT WATER LOOP DEMAND BRANCH 1,HOT WATER LOOP DEMAND OUTLET BRANCH,HOT WATER LOOP,Demand
     Plant Loop Connector Nodes,   1,Mixer,HOT WATER LOOP DEMAND MIXER,NODE 34,NODE 37,HOT WATER LOOP,Demand
     Plant Loop Connector Branches,2,Mixer,HOT WATER LOOP DEMAND MIXER,HOT WATER LOOP DEMAND BRANCH 2,HOT WATER LOOP DEMAND OUTLET BRANCH,HOT WATER LOOP,Demand
     Plant Loop Connector Nodes,   2,Mixer,HOT WATER LOOP DEMAND MIXER,NODE 36,NODE 37,HOT WATER LOOP,Demand
     Plant Loop Connector Branches,3,Mixer,HOT WATER LOOP DEMAND MIXER,HOT WATER LOOP DEMAND BRANCH 3,HOT WATER LOOP DEMAND OUTLET BRANCH,HOT WATER LOOP,Demand
     Plant Loop Connector Nodes,   3,Mixer,HOT WATER LOOP DEMAND MIXER,NODE 75,NODE 37,HOT WATER LOOP,Demand
     Plant Loop Connector Branches,4,Mixer,HOT WATER LOOP DEMAND MIXER,HOT WATER LOOP DEMAND BRANCH 4,HOT WATER LOOP DEMAND OUTLET BRANCH,HOT WATER LOOP,Demand
     Plant Loop Connector Nodes,   4,Mixer,HOT WATER LOOP DEMAND MIXER,NODE 80,NODE 37,HOT WATER LOOP,Demand
     Plant Loop Connector Branches,5,Mixer,HOT WATER LOOP DEMAND MIXER,HOT WATER LOOP DEMAND BRANCH 5,HOT WATER LOOP DEMAND OUTLET BRANCH,HOT WATER LOOP,Demand
     Plant Loop Connector Nodes,   5,Mixer,HOT WATER LOOP DEMAND MIXER,NODE 94,NODE 37,HOT WATER LOOP,Demand
     Plant Loop Connector Branches,6,Mixer,HOT WATER LOOP DEMAND MIXER,HOT WATER LOOP DEMAND BRANCH 6,HOT WATER LOOP DEMAND OUTLET BRANCH,HOT WATER LOOP,Demand
     Plant Loop Connector Nodes,   6,Mixer,HOT WATER LOOP DEMAND MIXER,NODE 104,NODE 37,HOT WATER LOOP,Demand
     Plant Loop Connector Branches,7,Mixer,HOT WATER LOOP DEMAND MIXER,HOT WATER LOOP DEMAND BRANCH 7,HOT WATER LOOP DEMAND OUTLET BRANCH,HOT WATER LOOP,Demand
     Plant Loop Connector Nodes,   7,Mixer,HOT WATER LOOP DEMAND MIXER,NODE 106,NODE 37,HOT WATER LOOP,Demand
     Plant Loop Connector Branches,8,Mixer,HOT WATER LOOP DEMAND MIXER,HOT WATER LOOP DEMAND BRANCH 8,HOT WATER LOOP DEMAND OUTLET BRANCH,HOT WATER LOOP,Demand
     Plant Loop Connector Nodes,   8,Mixer,HOT WATER LOOP DEMAND MIXER,NODE 108,NODE 37,HOT WATER LOOP,Demand
     Plant Loop Connector Branches,9,Mixer,HOT WATER LOOP DEMAND MIXER,HOT WATER LOOP DEMAND BRANCH 9,HOT WATER LOOP DEMAND OUTLET BRANCH,HOT WATER LOOP,Demand
     Plant Loop Connector Nodes,   9,Mixer,HOT WATER LOOP DEMAND MIXER,NODE 130,NODE 37,HOT WATER LOOP,Demand
     Plant Loop Connector Branches,10,Mixer,HOT WATER LOOP DEMAND MIXER,HOT WATER LOOP DEMAND BRANCH 10,HOT WATER LOOP DEMAND OUTLET BRANCH,HOT WATER LOOP,Demand
     Plant Loop Connector Nodes,   10,Mixer,HOT WATER LOOP DEMAND MIXER,NODE 136,NODE 37,HOT WATER LOOP,Demand
     Plant Loop Connector Branches,11,Mixer,HOT WATER LOOP DEMAND MIXER,HOT WATER LOOP DEMAND BRANCH 11,HOT WATER LOOP DEMAND OUTLET BRANCH,HOT WATER LOOP,Demand
     Plant Loop Connector Nodes,   11,Mixer,HOT WATER LOOP DEMAND MIXER,NODE 138,NODE 37,HOT WATER LOOP,Demand
     Plant Loop Connector Branches,12,Mixer,HOT WATER LOOP DEMAND MIXER,HOT WATER LOOP DEMAND BRANCH 12,HOT WATER LOOP DEMAND OUTLET BRANCH,HOT WATER LOOP,Demand
     Plant Loop Connector Nodes,   12,Mixer,HOT WATER LOOP DEMAND MIXER,NODE 140,NODE 37,HOT WATER LOOP,Demand
     Plant Loop Connector Branches,13,Mixer,HOT WATER LOOP DEMAND MIXER,HOT WATER LOOP DEMAND BRANCH 13,HOT WATER LOOP DEMAND OUTLET BRANCH,HOT WATER LOOP,Demand
     Plant Loop Connector Nodes,   13,Mixer,HOT WATER LOOP DEMAND MIXER,NODE 142,NODE 37,HOT WATER LOOP,Demand
     Plant Loop Connector Branches,14,Mixer,HOT WATER LOOP DEMAND MIXER,HOT WATER LOOP DEMAND BYPASS BRANCH,HOT WATER LOOP DEMAND OUTLET BRANCH,HOT WATER LOOP,Demand
     Plant Loop Connector Nodes,   14,Mixer,HOT WATER LOOP DEMAND MIXER,HOT WATER LOOP DEMAND BYPASS PIPE OUTLET NODE,NODE 37,HOT WATER LOOP,Demand
 Plant Loop,HOT WATER LOOP,Supply,NODE 24,NODE 25,HOT WATER LOOP SUPPLY BRANCHES,HOT WATER LOOP SUPPLY CONNECTOR LIST
   Plant Loop Connector,Splitter,HOT WATER LOOP SUPPLY SPLITTER,HOT WATER LOOP,Supply,2
     Plant Loop Connector Branches,1,Splitter,HOT WATER LOOP SUPPLY SPLITTER,HOT WATER LOOP SUPPLY INLET BRANCH,HOT WATER LOOP SUPPLY BRANCH 1,HOT WATER LOOP,Supply
     Plant Loop Connector Nodes,   1,Splitter,HOT WATER LOOP SUPPLY SPLITTER,NODE 30,NODE 26,HOT WATER LOOP,Supply
     Plant Loop Connector Branches,2,Splitter,HOT WATER LOOP SUPPLY SPLITTER,HOT WATER LOOP SUPPLY INLET BRANCH,HOT WATER LOOP SUPPLY BRANCH 2,HOT WATER LOOP,Supply
     Plant Loop Connector Nodes,   2,Splitter,HOT WATER LOOP SUPPLY SPLITTER,NODE 30,NODE 32,HOT WATER LOOP,Supply
   Plant Loop Connector,Mixer,HOT WATER LOOP SUPPLY MIXER,HOT WATER LOOP,Supply,2
     Plant Loop Connector Branches,1,Mixer,HOT WATER LOOP SUPPLY MIXER,HOT WATER LOOP SUPPLY BRANCH 1,HOT WATER LOOP SUPPLY OUTLET BRANCH,HOT WATER LOOP,Supply
     Plant Loop Connector Nodes,   1,Mixer,HOT WATER LOOP SUPPLY MIXER,NODE 31,NODE 39,HOT WATER LOOP,Supply
     Plant Loop Connector Branches,2,Mixer,HOT WATER LOOP SUPPLY MIXER,HOT WATER LOOP SUPPLY BRANCH 2,HOT WATER LOOP SUPPLY OUTLET BRANCH,HOT WATER LOOP,Supply
     Plant Loop Connector Nodes,   2,Mixer,HOT WATER LOOP SUPPLY MIXER,NODE 33,NODE 39,HOT WATER LOOP,Supply
 Plant Loop Supply Connection,HOT WATER LOOP,NODE 25,NODE 27
 Plant Loop Return Connection,HOT WATER LOOP,NODE 28,NODE 24
! ===============================================================
! <# Condenser Loops>,<Number of Condenser Loops>
 #Condenser Loops,0
! <Condenser Loop>,<Condenser Loop Name>,<Loop Type>,<Inlet Node Name>,<Outlet Node Name>,<Branch List>,<Connector List>
! <Condenser Loop Connector>,<Connector Type>,<Connector Name>,<Loop Name>,<Loop Type>,<Number of Inlets/Outlets>
! <Condenser Loop Connector Branches>,<Connector Node Count>,<Connector Type>,<Connector Name>,<Inlet Branch>,<Outlet Branch>,<Loop Name>,<Loop Type>
! <Condenser Loop Connector Nodes>,<Connector Node Count>,<Connector Type>,<Connector Name>,<Inlet Node>,<Outlet Node>,<Loop Name>,<Loop Type>
! <Condenser Loop Supply Connection>,<Condenser Loop Name>,<Supply Side Outlet Node Name>,<Demand Side Inlet Node Name>
! <Condenser Loop Return Connection>,<Condenser Loop Name>,<Demand Side Outlet Node Name>,<Supply Side Inlet Node Name>
! ===============================================================
! <# Controlled Zones>,<Number of Controlled Zones>
 #Controlled Zones,13
! <Controlled Zone>,<Controlled Zone Name>,<Equip List Name>,<Control List Name>,<Zone Node Name>,<Return Air Node Name>,<# Inlet Nodes>,<# Exhaust Nodes>
! <Controlled Zone Inlet>,<Inlet Node Count>,<Controlled Zone Name>,<Supply Air Inlet Node Name>,<SD Sys:Cooling/Heating [DD:Cooling] Inlet Node Name>,<DD Sys:Heating Inlet Node Name>
! <Controlled Zone Exhaust>,<Exhaust Node Count>,<Controlled Zone Name>,<Exhaust Air Node Name>
 Controlled Zone,THERMAL ZONE: SPACE 101,ZONE HVAC EQUIPMENT LIST 4,,NODE 4,NODE 52,1,0
   Controlled Zone Inlet,1,THERMAL ZONE: SPACE 101,NODE 18,NODE 55,N/A
 Controlled Zone,THERMAL ZONE: SPACE 102 - PLUS,ZONE HVAC EQUIPMENT LIST 1,,NODE 1,NODE 77,1,0
   Controlled Zone Inlet,1,THERMAL ZONE: SPACE 102 - PLUS,NODE 76,NODE 78,N/A
 Controlled Zone,THERMAL ZONE: SPACE 201,ZONE HVAC EQUIPMENT LIST 10,,NODE 10,NODE 95,1,0
   Controlled Zone Inlet,1,THERMAL ZONE: SPACE 201,NODE 85,NODE 96,N/A
 Controlled Zone,THERMAL ZONE: SPACE 202,ZONE HVAC EQUIPMENT LIST 13,,NODE 13,NODE 98,1,0
   Controlled Zone Inlet,1,THERMAL ZONE: SPACE 202,NODE 97,NODE 99,N/A
 Controlled Zone,THERMAL ZONE: SPACE 203,ZONE HVAC EQUIPMENT LIST 9,,NODE 9,NODE 101,1,0
   Controlled Zone Inlet,1,THERMAL ZONE: SPACE 203,NODE 100,NODE 102,N/A
 Controlled Zone,THERMAL ZONE: SPACE 301 - PLUS,ZONE HVAC EQUIPMENT LIST 2,,NODE 2,THERMAL ZONE: SPACE 301 - PLUS RETURN AIR NODE,1,1
   Controlled Zone Inlet,1,THERMAL ZONE: SPACE 301 - PLUS,NODE 168,Undefined,N/A
   Controlled Zone Exhaust,1,THERMAL ZONE: SPACE 301 - PLUS,NODE 167
 Controlled Zone,THERMAL ZONE: SPACE 303,ZONE HVAC EQUIPMENT LIST 12,,NODE 12,NODE 120,1,0
   Controlled Zone Inlet,1,THERMAL ZONE: SPACE 303,NODE 113,NODE 131,N/A
 Controlled Zone,THERMAL ZONE: SPACE 304,ZONE HVAC EQUIPMENT LIST 7,,NODE 7,NODE 122,1,0
   Controlled Zone Inlet,1,THERMAL ZONE: SPACE 304,NODE 121,NODE 132,N/A
 Controlled Zone,THERMAL ZONE: SPACE 401 - PLUS,ZONE HVAC EQUIPMENT LIST 3,,NODE 3,THERMAL ZONE: SPACE 401 - PLUS RETURN AIR NODE,1,1
   Controlled Zone Inlet,1,THERMAL ZONE: SPACE 401 - PLUS,NODE 170,Undefined,N/A
   Controlled Zone Exhaust,1,THERMAL ZONE: SPACE 401 - PLUS,NODE 169
 Controlled Zone,THERMAL ZONE: SPACE 403,ZONE HVAC EQUIPMENT LIST 11,,NODE 11,NODE 124,1,0
   Controlled Zone Inlet,1,THERMAL ZONE: SPACE 403,NODE 123,NODE 133,N/A
 Controlled Zone,THERMAL ZONE: SPACE 404,ZONE HVAC EQUIPMENT LIST 8,,NODE 8,NODE 126,1,0
   Controlled Zone Inlet,1,THERMAL ZONE: SPACE 404,NODE 125,NODE 134,N/A
 Controlled Zone,THERMAL ZONE: SPACE 501,ZONE HVAC EQUIPMENT LIST 6,,NODE 6,NODE 164,1,1
   Controlled Zone Inlet,1,THERMAL ZONE: SPACE 501,NODE 158,NODE 165,N/A
   Controlled Zone Exhaust,1,THERMAL ZONE: SPACE 501,NODE 166
 Controlled Zone,THERMAL ZONE: SPACE 502,ZONE HVAC EQUIPMENT LIST 5,,NODE 5,NODE 153,1,0
   Controlled Zone Inlet,1,THERMAL ZONE: SPACE 502,NODE 147,NODE 147,N/A
! ===============================================================
! <#Zone Equipment Lists>,<Number of Zone Equipment Lists>
 #Zone Equipment Lists,13
! <Zone Equipment List>,<Zone Equipment List Count>,<Zone Equipment List Name>,<Zone Name>,<Number of Components>
! <Zone Equipment Component>,<Component Count>,<Component Type>,<Component Name>,<Zone Name>,<Heating Priority>,<Cooling Priority>
 Zone Equipment List,1,ZONE HVAC EQUIPMENT LIST 4,THERMAL ZONE: SPACE 101,1
   Zone Equipment Component,1,ZONEHVAC:AIRDISTRIBUTIONUNIT,ZONEHVAC:AIRDISTRIBUTIONUNIT {096F2EB2-F120-4C62-97A7-3E562B8488D7},THERMAL ZONE: SPACE 101,1,1
 Zone Equipment List,2,ZONE HVAC EQUIPMENT LIST 1,THERMAL ZONE: SPACE 102 - PLUS,1
   Zone Equipment Component,1,ZONEHVAC:AIRDISTRIBUTIONUNIT,ZONEHVAC:AIRDISTRIBUTIONUNIT {A61CD91C-C8DF-4A9A-AF29-73E7888418F9},THERMAL ZONE: SPACE 102 - PLUS,1,1
 Zone Equipment List,3,ZONE HVAC EQUIPMENT LIST 10,THERMAL ZONE: SPACE 201,1
   Zone Equipment Component,1,ZONEHVAC:AIRDISTRIBUTIONUNIT,ZONEHVAC:AIRDISTRIBUTIONUNIT {2E210240-BE18-41ED-8AE8-89091371F9AA},THERMAL ZONE: SPACE 201,1,1
 Zone Equipment List,4,ZONE HVAC EQUIPMENT LIST 13,THERMAL ZONE: SPACE 202,1
   Zone Equipment Component,1,ZONEHVAC:AIRDISTRIBUTIONUNIT,ZONEHVAC:AIRDISTRIBUTIONUNIT {F7680F22-8558-4B2B-BE32-1ED69158B24D},THERMAL ZONE: SPACE 202,1,1
 Zone Equipment List,5,ZONE HVAC EQUIPMENT LIST 9,THERMAL ZONE: SPACE 203,1
   Zone Equipment Component,1,ZONEHVAC:AIRDISTRIBUTIONUNIT,ZONEHVAC:AIRDISTRIBUTIONUNIT {20343224-F0F1-4093-AFE0-858830ABD6B6},THERMAL ZONE: SPACE 203,1,1
 Zone Equipment List,6,ZONE HVAC EQUIPMENT LIST 2,THERMAL ZONE: SPACE 301 - PLUS,1
   Zone Equipment Component,1,ZONEHVAC:PACKAGEDTERMINALHEATPUMP,OS:ZONEHVAC:PACKAGEDTERMINALHEATPUMP 3RD FLOOR GUEST,THERMAL ZONE: SPACE 301 - PLUS,1,1
 Zone Equipment List,7,ZONE HVAC EQUIPMENT LIST 12,THERMAL ZONE: SPACE 303,1
   Zone Equipment Component,1,ZONEHVAC:AIRDISTRIBUTIONUNIT,ZONEHVAC:AIRDISTRIBUTIONUNIT {7DB8B99A-D648-4CDB-861C-8652E9AB1A10},THERMAL ZONE: SPACE 303,1,1
 Zone Equipment List,8,ZONE HVAC EQUIPMENT LIST 7,THERMAL ZONE: SPACE 304,1
   Zone Equipment Component,1,ZONEHVAC:AIRDISTRIBUTIONUNIT,ZONEHVAC:AIRDISTRIBUTIONUNIT {AE87F079-74D8-42D3-9222-0398EF3F676D},THERMAL ZONE: SPACE 304,1,1
 Zone Equipment List,9,ZONE HVAC EQUIPMENT LIST 3,THERMAL ZONE: SPACE 401 - PLUS,1
   Zone Equipment Component,1,ZONEHVAC:PACKAGEDTERMINALHEATPUMP,OS:ZONEHVAC:PACKAGEDTERMINALHEATPUMP 4TH FLOOR GUEST,THERMAL ZONE: SPACE 401 - PLUS,1,1
 Zone Equipment List,10,ZONE HVAC EQUIPMENT LIST 11,THERMAL ZONE: SPACE 403,1
   Zone Equipment Component,1,ZONEHVAC:AIRDISTRIBUTIONUNIT,ZONEHVAC:AIRDISTRIBUTIONUNIT {93F1014D-7073-4C03-8C64-AEE76BAEC670},THERMAL ZONE: SPACE 403,1,1
 Zone Equipment List,11,ZONE HVAC EQUIPMENT LIST 8,THERMAL ZONE: SPACE 404,1
   Zone Equipment Component,1,ZONEHVAC:AIRDISTRIBUTIONUNIT,ZONEHVAC:AIRDISTRIBUTIONUNIT {8B8E72EF-6639-4819-A677-79362B97EF62},THERMAL ZONE: SPACE 404,1,1
 Zone Equipment List,12,ZONE HVAC EQUIPMENT LIST 6,THERMAL ZONE: SPACE 501,1
   Zone Equipment Component,1,ZONEHVAC:AIRDISTRIBUTIONUNIT,AIR TERMINAL SINGLE DUCT PARALLEL PIU REHEAT 2 AIR DISTRIBUTION UNIT,THERMAL ZONE: SPACE 501,1,1
 Zone Equipment List,13,ZONE HVAC EQUIPMENT LIST 5,THERMAL ZONE: SPACE 502,1
   Zone Equipment Component,1,AIRTERMINAL:SINGLEDUCT:UNCONTROLLED,AIR TERMINAL SINGLE DUCT UNCONTROLLED 2,THERMAL ZONE: SPACE 502,1,1
! ===============================================================
! <#Dual Duct Damper Connections>,<Number of Dual Duct Damper Connections>
 #Dual Duct Damper Connections,0
! <Dual Duct Damper>,<Dual Duct Damper Count>,<Dual Duct Damper Name>,<Inlet Node>,<Outlet Node>,<Inlet Node Type>,<AirLoopHVAC Name>
! ===============================================================
! <#AirLoopHVACs>,<Number of AirLoopHVACs>
 #AirLoopHVACs,5
! <AirLoopHVAC>,<Air Loop Name>,<# Return Nodes>,<# Supply Nodes>,<# Zones Cooled>,<# Zones Heated>,<Outdoor Air Used>
! <AirLoop Return Connections>,<Connection Count>,<AirLoopHVAC Name>,<Zn Eqp Return Node #>,<Zn Eqp Return Node Name>,<AirLoop Return Node #>,<Air Loop Return Node Name>
! <AirLoop Supply Connections>,<Connection Count>,<AirLoopHVAC Name>,<Zn Eqp Supply Node #>,<Zn Eqp Supply Node Name>,<AirLoop Supply Node #>,<Air Loop Supply Node Name>
! <Cooled Zone Info>,<Cooled Zone Count>,<Cooled Zone Name>,<Cooled Zone Inlet Node #>,<Cooled Zone Inlet Node Name>,<AirLoopHVAC Name>
! <Heated Zone Info>,<Heated Zone Count>,<Heated Zone Name>,<Heated Zone Inlet Node #>,<Heated Zone Inlet Node Name>,<AirLoopHVAC Name>
! <Outdoor Air Connections>,<OA Inlet Node #>,<OA Return Air Inlet Node Name>,<OA Outlet Node #>,<OA Mixed Air Outlet Node Name>,<AirLoopHVAC Name>
! <AirLoopHVAC Connector>,<Connector Type>,<Connector Name>,<Loop Name>,<Loop Type>,<Number of Inlets/Outlets>
! <AirLoopHVAC Connector Branches>,<Connector Node Count>,<Connector Type>,<Connector Name>,<Inlet Branch>,<Outlet Branch>,<Loop Name>,<Loop Type>
! <AirLoopHVAC Connector Nodes>,<Connector Node Count>,<Connector Type>,<Connector Name>,<Inlet Node>,<Outlet Node>,<Loop Name>,<Loop Type>
 AirLoopHVAC,PACKAGED ROOFTOP AIR CONDITIONER - KITCHEN,1,1,1,0,Yes
   AirLoop Return Connections,1,PACKAGED ROOFTOP AIR CONDITIONER - KITCHEN,160,NODE 146,17,NODE 143
   AirLoop Supply Connections,1,PACKAGED ROOFTOP AIR CONDITIONER - KITCHEN,155,NODE 145,21,NODE 144
   Cooled Zone Info,1,THERMAL ZONE: SPACE 502,16,NODE 147,PACKAGED ROOFTOP AIR CONDITIONER - KITCHEN
   Outdoor Air Connections,17,NODE 143,18,NODE 150,PACKAGED ROOFTOP AIR CONDITIONER - KITCHEN
 AirLoopHVAC,PACKAGED ROOFTOP VAV WITH PFP BOXES AND REHEAT - DINING,1,1,1,0,Yes
   AirLoop Return Connections,1,PACKAGED ROOFTOP VAV WITH PFP BOXES AND REHEAT - DINING,161,NODE 157,22,NODE 154
   AirLoop Supply Connections,1,PACKAGED ROOFTOP VAV WITH PFP BOXES AND REHEAT - DINING,156,NODE 156,26,NODE 155
   Cooled Zone Info,1,THERMAL ZONE: SPACE 501,14,NODE 158,PACKAGED ROOFTOP VAV WITH PFP BOXES AND REHEAT - DINING
   Outdoor Air Connections,22,NODE 154,23,NODE 161,PACKAGED ROOFTOP VAV WITH PFP BOXES AND REHEAT - DINING
 AirLoopHVAC,VAV WITH REHEAT 1ST FLOOR,1,1,2,0,Yes
   AirLoop Return Connections,1,VAV WITH REHEAT 1ST FLOOR,162,NODE 17,27,NODE 14
   AirLoop Supply Connections,1,VAV WITH REHEAT 1ST FLOOR,157,NODE 16,31,NODE 15
   Cooled Zone Info,1,THERMAL ZONE: SPACE 101,1,NODE 18,VAV WITH REHEAT 1ST FLOOR
   Cooled Zone Info,2,THERMAL ZONE: SPACE 102 - PLUS,2,NODE 76,VAV WITH REHEAT 1ST FLOOR
   Outdoor Air Connections,27,NODE 14,28,NODE 21,VAV WITH REHEAT 1ST FLOOR
 AirLoopHVAC,VAV WITH REHEAT 2ND FLOOR,1,1,3,0,Yes
   AirLoop Return Connections,1,VAV WITH REHEAT 2ND FLOOR,163,NODE 84,32,NODE 81
   AirLoop Supply Connections,1,VAV WITH REHEAT 2ND FLOOR,158,NODE 83,36,NODE 82
   Cooled Zone Info,1,THERMAL ZONE: SPACE 201,3,NODE 85,VAV WITH REHEAT 2ND FLOOR
   Cooled Zone Info,2,THERMAL ZONE: SPACE 202,4,NODE 97,VAV WITH REHEAT 2ND FLOOR
   Cooled Zone Info,3,THERMAL ZONE: SPACE 203,5,NODE 100,VAV WITH REHEAT 2ND FLOOR
   Outdoor Air Connections,32,NODE 81,33,NODE 88,VAV WITH REHEAT 2ND FLOOR
 AirLoopHVAC,VAV WITH REHEAT 3RD AND 4TH FLOOR (HAND BUILT),1,1,4,0,Yes
   AirLoop Return Connections,1,VAV WITH REHEAT 3RD AND 4TH FLOOR (HAND BUILT),164,NODE 112,37,NODE 109
   AirLoop Supply Connections,1,VAV WITH REHEAT 3RD AND 4TH FLOOR (HAND BUILT),159,NODE 111,41,NODE 110
   Cooled Zone Info,1,THERMAL ZONE: SPACE 303,8,NODE 113,VAV WITH REHEAT 3RD AND 4TH FLOOR (HAND BUILT)
   Cooled Zone Info,2,THERMAL ZONE: SPACE 304,9,NODE 121,VAV WITH REHEAT 3RD AND 4TH FLOOR (HAND BUILT)
   Cooled Zone Info,3,THERMAL ZONE: SPACE 403,12,NODE 123,VAV WITH REHEAT 3RD AND 4TH FLOOR (HAND BUILT)
   Cooled Zone Info,4,THERMAL ZONE: SPACE 404,13,NODE 125,VAV WITH REHEAT 3RD AND 4TH FLOOR (HAND BUILT)
   Outdoor Air Connections,37,NODE 109,38,NODE 117,VAV WITH REHEAT 3RD AND 4TH FLOOR (HAND BUILT)
! ===============================================================
! <#Parent Node Connections>,<Number of Parent Node Connections>
 #Parent Node Connections,183
! <Parent Node Connection>,<Node Name>,<Node ObjectType>,<Node ObjectName>,<Node ConnectionType>,<Node FluidStream>
 Parent Node Connection,NODE 143,BRANCH,BRANCH {A31E51AE-DE98-43B2-AFA0-0A21EACA4CFD},Inlet,1
 Parent Node Connection,NODE 150,BRANCH,BRANCH {A31E51AE-DE98-43B2-AFA0-0A21EACA4CFD},Internal,1
 Parent Node Connection,NODE 151,BRANCH,BRANCH {A31E51AE-DE98-43B2-AFA0-0A21EACA4CFD},Internal,1
 Parent Node Connection,NODE 152,BRANCH,BRANCH {A31E51AE-DE98-43B2-AFA0-0A21EACA4CFD},Internal,1
 Parent Node Connection,NODE 144,BRANCH,BRANCH {A31E51AE-DE98-43B2-AFA0-0A21EACA4CFD},Outlet,1
 Parent Node Connection,NODE 154,BRANCH,BRANCH {42BB0641-83AE-43FF-BBCE-B8D4B60786CC},Inlet,1
 Parent Node Connection,NODE 161,BRANCH,BRANCH {42BB0641-83AE-43FF-BBCE-B8D4B60786CC},Internal,1
 Parent Node Connection,NODE 162,BRANCH,BRANCH {42BB0641-83AE-43FF-BBCE-B8D4B60786CC},Internal,1
 Parent Node Connection,NODE 163,BRANCH,BRANCH {42BB0641-83AE-43FF-BBCE-B8D4B60786CC},Internal,1
 Parent Node Connection,NODE 155,BRANCH,BRANCH {42BB0641-83AE-43FF-BBCE-B8D4B60786CC},Outlet,1
 Parent Node Connection,NODE 14,BRANCH,BRANCH {39A8AE21-E98C-41B5-935A-8ECC24144E1B},Inlet,1
 Parent Node Connection,NODE 21,BRANCH,BRANCH {39A8AE21-E98C-41B5-935A-8ECC24144E1B},Internal,1
 Parent Node Connection,NODE 22,BRANCH,BRANCH {39A8AE21-E98C-41B5-935A-8ECC24144E1B},Internal,1
 Parent Node Connection,NODE 23,BRANCH,BRANCH {39A8AE21-E98C-41B5-935A-8ECC24144E1B},Internal,1
 Parent Node Connection,NODE 15,BRANCH,BRANCH {39A8AE21-E98C-41B5-935A-8ECC24144E1B},Outlet,1
 Parent Node Connection,NODE 81,BRANCH,BRANCH {F9E8411D-498F-4DAE-BE62-E072197485A0},Inlet,1
 Parent Node Connection,NODE 88,BRANCH,BRANCH {F9E8411D-498F-4DAE-BE62-E072197485A0},Internal,1
 Parent Node Connection,NODE 89,BRANCH,BRANCH {F9E8411D-498F-4DAE-BE62-E072197485A0},Internal,1
 Parent Node Connection,NODE 90,BRANCH,BRANCH {F9E8411D-498F-4DAE-BE62-E072197485A0},Internal,1
 Parent Node Connection,NODE 82,BRANCH,BRANCH {F9E8411D-498F-4DAE-BE62-E072197485A0},Outlet,1
 Parent Node Connection,NODE 109,BRANCH,BRANCH {B091C554-7A6D-4C95-9911-5219ED0B6312},Inlet,1
 Parent Node Connection,NODE 117,BRANCH,BRANCH {B091C554-7A6D-4C95-9911-5219ED0B6312},Internal,1
 Parent Node Connection,NODE 118,BRANCH,BRANCH {B091C554-7A6D-4C95-9911-5219ED0B6312},Internal,1
 Parent Node Connection,NODE 119,BRANCH,BRANCH {B091C554-7A6D-4C95-9911-5219ED0B6312},Internal,1
 Parent Node Connection,NODE 110,BRANCH,BRANCH {B091C554-7A6D-4C95-9911-5219ED0B6312},Outlet,1
 Parent Node Connection,NODE 40,BRANCH,CHILLED WATER LOOP SUPPLY INLET BRANCH,Inlet,1
 Parent Node Connection,NODE 46,BRANCH,CHILLED WATER LOOP SUPPLY INLET BRANCH,Outlet,1
 Parent Node Connection,NODE 42,BRANCH,CHILLED WATER LOOP SUPPLY BRANCH 1,Inlet,1
 Parent Node Connection,NODE 47,BRANCH,CHILLED WATER LOOP SUPPLY BRANCH 1,Outlet,1
 Parent Node Connection,NODE 48,BRANCH,CHILLED WATER LOOP SUPPLY BRANCH 2,Inlet,1
 Parent Node Connection,NODE 49,BRANCH,CHILLED WATER LOOP SUPPLY BRANCH 2,Outlet,1
 Parent Node Connection,NODE 50,BRANCH,CHILLED WATER LOOP SUPPLY OUTLET BRANCH,Inlet,1
 Parent Node Connection,NODE 41,BRANCH,CHILLED WATER LOOP SUPPLY OUTLET BRANCH,Outlet,1
 Parent Node Connection,NODE 43,BRANCH,CHILLED WATER LOOP DEMAND INLET BRANCH,Inlet,1
 Parent Node Connection,NODE 57,BRANCH,CHILLED WATER LOOP DEMAND INLET BRANCH,Outlet,1
 Parent Node Connection,NODE 45,BRANCH,CHILLED WATER LOOP DEMAND BRANCH 1,Inlet,1
 Parent Node Connection,NODE 51,BRANCH,CHILLED WATER LOOP DEMAND BRANCH 1,Outlet,1
 Parent Node Connection,NODE 53,BRANCH,CHILLED WATER LOOP DEMAND BRANCH 2,Inlet,1
 Parent Node Connection,NODE 54,BRANCH,CHILLED WATER LOOP DEMAND BRANCH 2,Outlet,1
[...]
 Non-Parent Node Connection,AIR TERMINAL SINGLE DUCT VAV REHEAT 4 DAMPER OUTLET,AIRTERMINAL:SINGLEDUCT:VAV:REHEAT,AIR TERMINAL SINGLE DUCT VAV REHEAT 4,Outlet,1
 Non-Parent Node Connection,NODE 96,AIRTERMINAL:SINGLEDUCT:VAV:REHEAT,AIR TERMINAL SINGLE DUCT VAV REHEAT 4,Inlet,1
 Non-Parent Node Connection,AIR TERMINAL SINGLE DUCT VAV REHEAT 5 DAMPER OUTLET,AIRTERMINAL:SINGLEDUCT:VAV:REHEAT,AIR TERMINAL SINGLE DUCT VAV REHEAT 5,Outlet,1
 Non-Parent Node Connection,NODE 99,AIRTERMINAL:SINGLEDUCT:VAV:REHEAT,AIR TERMINAL SINGLE DUCT VAV REHEAT 5,Inlet,1
 Non-Parent Node Connection,AIR TERMINAL SINGLE DUCT VAV REHEAT 6 DAMPER OUTLET,AIRTERMINAL:SINGLEDUCT:VAV:REHEAT,AIR TERMINAL SINGLE DUCT VAV REHEAT 6,Outlet,1
 Non-Parent Node Connection,NODE 102,AIRTERMINAL:SINGLEDUCT:VAV:REHEAT,AIR TERMINAL SINGLE DUCT VAV REHEAT 6,Inlet,1
 Non-Parent Node Connection,AIRTERMINAL WITH HOT WATER REHEAT DAMPER OUTLET,AIRTERMINAL:SINGLEDUCT:VAV:REHEAT,AIRTERMINAL WITH HOT WATER REHEAT,Outlet,1
 Non-Parent Node Connection,NODE 131,AIRTERMINAL:SINGLEDUCT:VAV:REHEAT,AIRTERMINAL WITH HOT WATER REHEAT,Inlet,1
 Non-Parent Node Connection,AIRTERMINAL WITH HOT WATER REHEAT 1 DAMPER OUTLET,AIRTERMINAL:SINGLEDUCT:VAV:REHEAT,AIRTERMINAL WITH HOT WATER REHEAT 1,Outlet,1
 Non-Parent Node Connection,NODE 132,AIRTERMINAL:SINGLEDUCT:VAV:REHEAT,AIRTERMINAL WITH HOT WATER REHEAT 1,Inlet,1
 Non-Parent Node Connection,AIRTERMINAL WITH HOT WATER REHEAT 2 DAMPER OUTLET,AIRTERMINAL:SINGLEDUCT:VAV:REHEAT,AIRTERMINAL WITH HOT WATER REHEAT 2,Outlet,1
 Non-Parent Node Connection,NODE 133,AIRTERMINAL:SINGLEDUCT:VAV:REHEAT,AIRTERMINAL WITH HOT WATER REHEAT 2,Inlet,1
 Non-Parent Node Connection,AIRTERMINAL WITH HOT WATER REHEAT 3 DAMPER OUTLET,AIRTERMINAL:SINGLEDUCT:VAV:REHEAT,AIRTERMINAL WITH HOT WATER REHEAT 3,Outlet,1
 Non-Parent Node Connection,NODE 134,AIRTERMINAL:SINGLEDUCT:VAV:REHEAT,AIRTERMINAL WITH HOT WATER REHEAT 3,Inlet,1
 Non-Parent Node Connection,OS:ZONEHVAC:PACKAGEDTERMINALHEATPUMP 3RD FLOOR GUEST MIXED AIR NODE,OUTDOORAIR:MIXER,OS:ZONEHVAC:PACKAGEDTERMINALHEATPUMP 3RD FLOOR GUEST OA MIXER,Outlet,1
 Non-Parent Node Connection,OS:ZONEHVAC:PACKAGEDTERMINALHEATPUMP 3RD FLOOR GUEST OA NODE,OUTDOORAIR:MIXER,OS:ZONEHVAC:PACKAGEDTERMINALHEATPUMP 3RD FLOOR GUEST OA MIXER,Inlet,1
 Non-Parent Node Connection,OS:ZONEHVAC:PACKAGEDTERMINALHEATPUMP 3RD FLOOR GUEST RELIEF AIR NODE,OUTDOORAIR:MIXER,OS:ZONEHVAC:PACKAGEDTERMINALHEATPUMP 3RD FLOOR GUEST OA MIXER,ReliefAir,1
 Non-Parent Node Connection,NODE 167,OUTDOORAIR:MIXER,OS:ZONEHVAC:PACKAGEDTERMINALHEATPUMP 3RD FLOOR GUEST OA MIXER,Inlet,1
 Non-Parent Node Connection,OS:ZONEHVAC:PACKAGEDTERMINALHEATPUMP 4TH FLOOR GUEST MIXED AIR NODE,OUTDOORAIR:MIXER,OS:ZONEHVAC:PACKAGEDTERMINALHEATPUMP 4TH FLOOR GUEST OA MIXER,Outlet,1
 Non-Parent Node Connection,OS:ZONEHVAC:PACKAGEDTERMINALHEATPUMP 4TH FLOOR GUEST OA NODE,OUTDOORAIR:MIXER,OS:ZONEHVAC:PACKAGEDTERMINALHEATPUMP 4TH FLOOR GUEST OA MIXER,Inlet,1
 Non-Parent Node Connection,OS:ZONEHVAC:PACKAGEDTERMINALHEATPUMP 4TH FLOOR GUEST RELIEF AIR NODE,OUTDOORAIR:MIXER,OS:ZONEHVAC:PACKAGEDTERMINALHEATPUMP 4TH FLOOR GUEST OA MIXER,ReliefAir,1
 Non-Parent Node Connection,NODE 169,OUTDOORAIR:MIXER,OS:ZONEHVAC:PACKAGEDTERMINALHEATPUMP 4TH FLOOR GUEST OA MIXER,Inlet,1
 Non-Parent Node Connection,NODE 150,OUTDOORAIR:MIXER,OUTDOORAIR:MIXER {969B58E4-290B-40AE-8167-F6FB49C4B824},Outlet,1
 Non-Parent Node Connection,NODE 148,OUTDOORAIR:MIXER,OUTDOORAIR:MIXER {969B58E4-290B-40AE-8167-F6FB49C4B824},Inlet,1
 Non-Parent Node Connection,NODE 149,OUTDOORAIR:MIXER,OUTDOORAIR:MIXER {969B58E4-290B-40AE-8167-F6FB49C4B824},ReliefAir,1
 Non-Parent Node Connection,NODE 143,OUTDOORAIR:MIXER,OUTDOORAIR:MIXER {969B58E4-290B-40AE-8167-F6FB49C4B824},Inlet,1
 Non-Parent Node Connection,NODE 161,OUTDOORAIR:MIXER,OUTDOORAIR:MIXER {A8AFF56C-8245-4BF5-86BA-A3184A3A161D},Outlet,1
 Non-Parent Node Connection,NODE 159,OUTDOORAIR:MIXER,OUTDOORAIR:MIXER {A8AFF56C-8245-4BF5-86BA-A3184A3A161D},Inlet,1
 Non-Parent Node Connection,NODE 160,OUTDOORAIR:MIXER,OUTDOORAIR:MIXER {A8AFF56C-8245-4BF5-86BA-A3184A3A161D},ReliefAir,1
 Non-Parent Node Connection,NODE 154,OUTDOORAIR:MIXER,OUTDOORAIR:MIXER {A8AFF56C-8245-4BF5-86BA-A3184A3A161D},Inlet,1
 Non-Parent Node Connection,NODE 21,OUTDOORAIR:MIXER,OUTDOORAIR:MIXER {3557B5D9-9869-4DE0-9267-DF85EF541B69},Outlet,1
 Non-Parent Node Connection,NODE 19,OUTDOORAIR:MIXER,OUTDOORAIR:MIXER {3557B5D9-9869-4DE0-9267-DF85EF541B69},Inlet,1
 Non-Parent Node Connection,NODE 20,OUTDOORAIR:MIXER,OUTDOORAIR:MIXER {3557B5D9-9869-4DE0-9267-DF85EF541B69},ReliefAir,1
 Non-Parent Node Connection,NODE 14,OUTDOORAIR:MIXER,OUTDOORAIR:MIXER {3557B5D9-9869-4DE0-9267-DF85EF541B69},Inlet,1
 Non-Parent Node Connection,NODE 88,OUTDOORAIR:MIXER,OUTDOORAIR:MIXER {2D1FFC25-AB01-41DC-A5F5-106824F710AA},Outlet,1
 Non-Parent Node Connection,NODE 86,OUTDOORAIR:MIXER,OUTDOORAIR:MIXER {2D1FFC25-AB01-41DC-A5F5-106824F710AA},Inlet,1
 Non-Parent Node Connection,NODE 87,OUTDOORAIR:MIXER,OUTDOORAIR:MIXER {2D1FFC25-AB01-41DC-A5F5-106824F710AA},ReliefAir,1
 Non-Parent Node Connection,NODE 81,OUTDOORAIR:MIXER,OUTDOORAIR:MIXER {2D1FFC25-AB01-41DC-A5F5-106824F710AA},Inlet,1
 Non-Parent Node Connection,NODE 117,OUTDOORAIR:MIXER,OUTDOORAIR:MIXER {15874350-CDE4-47BE-8B16-7994B87D0DA3},Outlet,1
 Non-Parent Node Connection,NODE 115,OUTDOORAIR:MIXER,OUTDOORAIR:MIXER {15874350-CDE4-47BE-8B16-7994B87D0DA3},Inlet,1
 Non-Parent Node Connection,NODE 116,OUTDOORAIR:MIXER,OUTDOORAIR:MIXER {15874350-CDE4-47BE-8B16-7994B87D0DA3},ReliefAir,1
 Non-Parent Node Connection,NODE 109,OUTDOORAIR:MIXER,OUTDOORAIR:MIXER {15874350-CDE4-47BE-8B16-7994B87D0DA3},Inlet,1
 Non-Parent Node Connection,OS:ZONEHVAC:PACKAGEDTERMINALHEATPUMP 3RD FLOOR GUEST HEATING COIL OUTLET NODE,FAN:CONSTANTVOLUME,OS:FAN:CONSTANTVOLUME 3,Inlet,1
 Non-Parent Node Connection,OS:ZONEHVAC:PACKAGEDTERMINALHEATPUMP 3RD FLOOR GUEST FAN OUTLET NODE,FAN:CONSTANTVOLUME,OS:FAN:CONSTANTVOLUME 3,Outlet,1
 Non-Parent Node Connection,OS:ZONEHVAC:PACKAGEDTERMINALHEATPUMP 4TH FLOOR GUEST HEATING COIL OUTLET NODE,FAN:CONSTANTVOLUME,OS:FAN:CONSTANTVOLUME 4,Inlet,1
 Non-Parent Node Connection,OS:ZONEHVAC:PACKAGEDTERMINALHEATPUMP 4TH FLOOR GUEST FAN OUTLET NODE,FAN:CONSTANTVOLUME,OS:FAN:CONSTANTVOLUME 4,Outlet,1
 Non-Parent Node Connection,NODE 166,FAN:CONSTANTVOLUME,FAN CONSTANT VOLUME 3,Inlet,1
 Non-Parent Node Connection,AIR TERMINAL SINGLE DUCT PARALLEL PIU REHEAT 2 FAN OUTLET,FAN:CONSTANTVOLUME,FAN CONSTANT VOLUME 3,Outlet,1
 Non-Parent Node Connection,NODE 152,FAN:CONSTANTVOLUME,FAN CONSTANT VOLUME 1,Inlet,1
 Non-Parent Node Connection,NODE 144,FAN:CONSTANTVOLUME,FAN CONSTANT VOLUME 1,Outlet,1
 Non-Parent Node Connection,NODE 163,FAN:VARIABLEVOLUME,FAN VARIABLE VOLUME 3,Inlet,1
 Non-Parent Node Connection,NODE 155,FAN:VARIABLEVOLUME,FAN VARIABLE VOLUME 3,Outlet,1
 Non-Parent Node Connection,NODE 23,FAN:VARIABLEVOLUME,FAN VARIABLE VOLUME 1,Inlet,1
 Non-Parent Node Connection,NODE 15,FAN:VARIABLEVOLUME,FAN VARIABLE VOLUME 1,Outlet,1
 Non-Parent Node Connection,NODE 90,FAN:VARIABLEVOLUME,FAN VARIABLE VOLUME 2,Inlet,1
 Non-Parent Node Connection,NODE 82,FAN:VARIABLEVOLUME,FAN VARIABLE VOLUME 2,Outlet,1
 Non-Parent Node Connection,NODE 119,FAN:VARIABLEVOLUME,VARIABLE SPEED FAN,Inlet,1
 Non-Parent Node Connection,NODE 110,FAN:VARIABLEVOLUME,VARIABLE SPEED FAN,Outlet,1
 Non-Parent Node Connection,OS:ZONEHVAC:PACKAGEDTERMINALHEATPUMP 3RD FLOOR GUEST MIXED AIR NODE,COIL:COOLING:DX:SINGLESPEED,OS:COIL:COOLING:DX:SINGLESPEED 3,Inlet,1
 Non-Parent Node Connection,OS:ZONEHVAC:PACKAGEDTERMINALHEATPUMP 3RD FLOOR GUEST COOLING COIL OUTLET NODE,COIL:COOLING:DX:SINGLESPEED,OS:COIL:COOLING:DX:SINGLESPEED 3,Outlet,1
 Non-Parent Node Connection,OS:ZONEHVAC:PACKAGEDTERMINALHEATPUMP 4TH FLOOR GUEST MIXED AIR NODE,COIL:COOLING:DX:SINGLESPEED,OS:COIL:COOLING:DX:SINGLESPEED 4,Inlet,1
 Non-Parent Node Connection,OS:ZONEHVAC:PACKAGEDTERMINALHEATPUMP 4TH FLOOR GUEST COOLING COIL OUTLET NODE,COIL:COOLING:DX:SINGLESPEED,OS:COIL:COOLING:DX:SINGLESPEED 4,Outlet,1
 Non-Parent Node Connection,NODE 150,COIL:COOLING:DX:SINGLESPEED,COIL COOLING DX SINGLE SPEED 1,Inlet,1
 Non-Parent Node Connection,NODE 151,COIL:COOLING:DX:SINGLESPEED,COIL COOLING DX SINGLE SPEED 1,Outlet,1
 Non-Parent Node Connection,OS:ZONEHVAC:PACKAGEDTERMINALHEATPUMP 3RD FLOOR GUEST COOLING COIL OUTLET NODE,COIL:HEATING:DX:SINGLESPEED,OS:COIL:HEATING:DX:SINGLESPEED 2,Inlet,1
 Non-Parent Node Connection,OS:ZONEHVAC:PACKAGEDTERMINALHEATPUMP 3RD FLOOR GUEST HEATING COIL OUTLET NODE,COIL:HEATING:DX:SINGLESPEED,OS:COIL:HEATING:DX:SINGLESPEED 2,Outlet,1
 Non-Parent Node Connection,OS:ZONEHVAC:PACKAGEDTERMINALHEATPUMP 4TH FLOOR GUEST COOLING COIL OUTLET NODE,COIL:HEATING:DX:SINGLESPEED,OS:COIL:HEATING:DX:SINGLESPEED 3,Inlet,1
 Non-Parent Node Connection,OS:ZONEHVAC:PACKAGEDTERMINALHEATPUMP 4TH FLOOR GUEST HEATING COIL OUTLET NODE,COIL:HEATING:DX:SINGLESPEED,OS:COIL:HEATING:DX:SINGLESPEED 3,Outlet,1
 Non-Parent Node Connection,NODE 161,COIL:COOLING:DX:TWOSPEED,COIL COOLING DX TWO SPEED 1,Inlet,1
 Non-Parent Node Connection,NODE 162,COIL:COOLING:DX:TWOSPEED,COIL COOLING DX TWO SPEED 1,Outlet,1
 Non-Parent Node Connection,OS:ZONEHVAC:PACKAGEDTERMINALHEATPUMP 3RD FLOOR GUEST FAN OUTLET NODE,COIL:HEATING:ELECTRIC,OS:COIL:HEATING:ELECTRIC 5,Inlet,1
 Non-Parent Node Connection,NODE 168,COIL:HEATING:ELECTRIC,OS:COIL:HEATING:ELECTRIC 5,Outlet,1
 Non-Parent Node Connection,OS:ZONEHVAC:PACKAGEDTERMINALHEATPUMP 4TH FLOOR GUEST FAN OUTLET NODE,COIL:HEATING:ELECTRIC,OS:COIL:HEATING:ELECTRIC 6,Inlet,1
 Non-Parent Node Connection,NODE 170,COIL:HEATING:ELECTRIC,OS:COIL:HEATING:ELECTRIC 6,Outlet,1
 Non-Parent Node Connection,AIR TERMINAL SINGLE DUCT PARALLEL PIU REHEAT 2 MIXER OUTLET,COIL:HEATING:ELECTRIC,COIL HEATING ELECTRIC 3,Inlet,1
 Non-Parent Node Connection,NODE 158,COIL:HEATING:ELECTRIC,COIL HEATING ELECTRIC 3,Outlet,1
 Non-Parent Node Connection,NODE 162,COIL:HEATING:ELECTRIC,COIL HEATING ELECTRIC 1,Inlet,1
 Non-Parent Node Connection,NODE 163,COIL:HEATING:ELECTRIC,COIL HEATING ELECTRIC 1,Outlet,1
 Non-Parent Node Connection,NODE 163,COIL:HEATING:ELECTRIC,COIL HEATING ELECTRIC 1,Sensor,1
 Non-Parent Node Connection,NODE 151,COIL:HEATING:GAS,COIL HEATING GAS 1,Inlet,1
 Non-Parent Node Connection,NODE 152,COIL:HEATING:GAS,COIL HEATING GAS 1,Outlet,1
 Non-Parent Node Connection,NODE 152,COIL:HEATING:GAS,COIL HEATING GAS 1,Sensor,1
 Non-Parent Node Connection,AIR TERMINAL SINGLE DUCT PARALLEL PIU REHEAT 2 MIXER OUTLET,AIRLOOPHVAC:ZONEMIXER,AIR TERMINAL SINGLE DUCT PARALLEL PIU REHEAT 2 MIXER,Outlet,1
 Non-Parent Node Connection,AIR TERMINAL SINGLE DUCT PARALLEL PIU REHEAT 2 FAN OUTLET,AIRLOOPHVAC:ZONEMIXER,AIR TERMINAL SINGLE DUCT PARALLEL PIU REHEAT 2 MIXER,Inlet,1
 Non-Parent Node Connection,NODE 165,AIRLOOPHVAC:ZONEMIXER,AIR TERMINAL SINGLE DUCT PARALLEL PIU REHEAT 2 MIXER,Inlet,1
 Non-Parent Node Connection,NODE 146,AIRLOOPHVAC:ZONEMIXER,AIR LOOP HVAC ZONE MIXER 4,Outlet,1
 Non-Parent Node Connection,NODE 153,AIRLOOPHVAC:ZONEMIXER,AIR LOOP HVAC ZONE MIXER 4,Inlet,1
 Non-Parent Node Connection,NODE 157,AIRLOOPHVAC:ZONEMIXER,AIR LOOP HVAC ZONE MIXER 5,Outlet,1
 Non-Parent Node Connection,NODE 164,AIRLOOPHVAC:ZONEMIXER,AIR LOOP HVAC ZONE MIXER 5,Inlet,1
 Non-Parent Node Connection,NODE 17,AIRLOOPHVAC:ZONEMIXER,AIR LOOP HVAC ZONE MIXER 1,Outlet,1
 Non-Parent Node Connection,NODE 52,AIRLOOPHVAC:ZONEMIXER,AIR LOOP HVAC ZONE MIXER 1,Inlet,1
 Non-Parent Node Connection,NODE 77,AIRLOOPHVAC:ZONEMIXER,AIR LOOP HVAC ZONE MIXER 1,Inlet,1
 Non-Parent Node Connection,NODE 84,AIRLOOPHVAC:ZONEMIXER,AIR LOOP HVAC ZONE MIXER 2,Outlet,1
 Non-Parent Node Connection,NODE 95,AIRLOOPHVAC:ZONEMIXER,AIR LOOP HVAC ZONE MIXER 2,Inlet,1
 Non-Parent Node Connection,NODE 98,AIRLOOPHVAC:ZONEMIXER,AIR LOOP HVAC ZONE MIXER 2,Inlet,1
 Non-Parent Node Connection,NODE 101,AIRLOOPHVAC:ZONEMIXER,AIR LOOP HVAC ZONE MIXER 2,Inlet,1
 Non-Parent Node Connection,NODE 112,AIRLOOPHVAC:ZONEMIXER,AIR LOOP HVAC ZONE MIXER 3,Outlet,1
 Non-Parent Node Connection,NODE 120,AIRLOOPHVAC:ZONEMIXER,AIR LOOP HVAC ZONE MIXER 3,Inlet,1
 Non-Parent Node Connection,NODE 122,AIRLOOPHVAC:ZONEMIXER,AIR LOOP HVAC ZONE MIXER 3,Inlet,1
 Non-Parent Node Connection,NODE 124,AIRLOOPHVAC:ZONEMIXER,AIR LOOP HVAC ZONE MIXER 3,Inlet,1
 Non-Parent Node Connection,NODE 126,AIRLOOPHVAC:ZONEMIXER,AIR LOOP HVAC ZONE MIXER 3,Inlet,1
 Non-Parent Node Connection,NODE 147,AIRTERMINAL:SINGLEDUCT:UNCONTROLLED,AIR TERMINAL SINGLE DUCT UNCONTROLLED 2,Outlet,1
 Non-Parent Node Connection,NODE 22,CONTROLLER:WATERCOIL,CONTROLLER WATER COIL 2,Sensor,1
 Non-Parent Node Connection,NODE 45,CONTROLLER:WATERCOIL,CONTROLLER WATER COIL 2,Actuator,1
 Non-Parent Node Connection,NODE 23,CONTROLLER:WATERCOIL,CONTROLLER WATER COIL 1,Sensor,1
 Non-Parent Node Connection,NODE 35,CONTROLLER:WATERCOIL,CONTROLLER WATER COIL 1,Actuator,1
 Non-Parent Node Connection,NODE 89,CONTROLLER:WATERCOIL,CONTROLLER WATER COIL 5,Sensor,1
 Non-Parent Node Connection,NODE 91,CONTROLLER:WATERCOIL,CONTROLLER WATER COIL 5,Actuator,1
 Non-Parent Node Connection,NODE 90,CONTROLLER:WATERCOIL,CONTROLLER WATER COIL 6,Sensor,1
 Non-Parent Node Connection,NODE 93,CONTROLLER:WATERCOIL,CONTROLLER WATER COIL 6,Actuator,1
 Non-Parent Node Connection,NODE 118,CONTROLLER:WATERCOIL,CONTROLLER WATER COIL 7,Sensor,1
 Non-Parent Node Connection,NODE 127,CONTROLLER:WATERCOIL,CONTROLLER WATER COIL 7,Actuator,1
 Non-Parent Node Connection,NODE 119,CONTROLLER:WATERCOIL,CONTROLLER WATER COIL 8,Sensor,1
 Non-Parent Node Connection,NODE 129,CONTROLLER:WATERCOIL,CONTROLLER WATER COIL 8,Actuator,1
 Non-Parent Node Connection,NODE 150,CONTROLLER:OUTDOORAIR,CONTROLLER OUTDOOR AIR 4,Sensor,1
 Non-Parent Node Connection,NODE 148,CONTROLLER:OUTDOORAIR,CONTROLLER OUTDOOR AIR 4,Actuator,1
 Non-Parent Node Connection,NODE 149,CONTROLLER:OUTDOORAIR,CONTROLLER OUTDOOR AIR 4,Actuator,1
 Non-Parent Node Connection,NODE 143,CONTROLLER:OUTDOORAIR,CONTROLLER OUTDOOR AIR 4,Sensor,1
 Non-Parent Node Connection,NODE 161,CONTROLLER:OUTDOORAIR,CONTROLLER OUTDOOR AIR 5,Sensor,1
 Non-Parent Node Connection,NODE 159,CONTROLLER:OUTDOORAIR,CONTROLLER OUTDOOR AIR 5,Actuator,1
 Non-Parent Node Connection,NODE 160,CONTROLLER:OUTDOORAIR,CONTROLLER OUTDOOR AIR 5,Actuator,1
 Non-Parent Node Connection,NODE 154,CONTROLLER:OUTDOORAIR,CONTROLLER OUTDOOR AIR 5,Sensor,1
 Non-Parent Node Connection,NODE 21,CONTROLLER:OUTDOORAIR,CONTROLLER OUTDOOR AIR 1,Sensor,1
 Non-Parent Node Connection,NODE 19,CONTROLLER:OUTDOORAIR,CONTROLLER OUTDOOR AIR 1,Actuator,1
 Non-Parent Node Connection,NODE 20,CONTROLLER:OUTDOORAIR,CONTROLLER OUTDOOR AIR 1,Actuator,1
 Non-Parent Node Connection,NODE 14,CONTROLLER:OUTDOORAIR,CONTROLLER OUTDOOR AIR 1,Sensor,1
 Non-Parent Node Connection,NODE 88,CONTROLLER:OUTDOORAIR,CONTROLLER OUTDOOR AIR 2,Sensor,1
 Non-Parent Node Connection,NODE 86,CONTROLLER:OUTDOORAIR,CONTROLLER OUTDOOR AIR 2,Actuator,1
 Non-Parent Node Connection,NODE 87,CONTROLLER:OUTDOORAIR,CONTROLLER OUTDOOR AIR 2,Actuator,1
 Non-Parent Node Connection,NODE 81,CONTROLLER:OUTDOORAIR,CONTROLLER OUTDOOR AIR 2,Sensor,1
 Non-Parent Node Connection,NODE 117,CONTROLLER:OUTDOORAIR,CONTROLLER OUTDOOR AIR 3,Sensor,1
 Non-Parent Node Connection,NODE 115,CONTROLLER:OUTDOORAIR,CONTROLLER OUTDOOR AIR 3,Actuator,1
 Non-Parent Node Connection,NODE 116,CONTROLLER:OUTDOORAIR,CONTROLLER OUTDOOR AIR 3,Actuator,1
 Non-Parent Node Connection,NODE 109,CONTROLLER:OUTDOORAIR,CONTROLLER OUTDOOR AIR 3,Sensor,1
 Non-Parent Node Connection,NODE 48,PIPE:ADIABATIC,PIPE ADIABATIC 6,Inlet,1
 Non-Parent Node Connection,NODE 49,PIPE:ADIABATIC,PIPE ADIABATIC 6,Outlet,1
 Non-Parent Node Connection,NODE 50,PIPE:ADIABATIC,PIPE ADIABATIC 7,Inlet,1
 Non-Parent Node Connection,NODE 41,PIPE:ADIABATIC,PIPE ADIABATIC 7,Outlet,1
 Non-Parent Node Connection,NODE 43,PIPE:ADIABATIC,PIPE ADIABATIC 9,Inlet,1
 Non-Parent Node Connection,NODE 57,PIPE:ADIABATIC,PIPE ADIABATIC 9,Outlet,1
 Non-Parent Node Connection,NODE 53,PIPE:ADIABATIC,PIPE ADIABATIC 8,Inlet,1
 Non-Parent Node Connection,NODE 54,PIPE:ADIABATIC,PIPE ADIABATIC 8,Outlet,1
 Non-Parent Node Connection,CHILLED WATER LOOP DEMAND BYPASS PIPE INLET NODE,PIPE:ADIABATIC,CHILLED WATER LOOP DEMAND BYPASS PIPE,Inlet,1
 Non-Parent Node Connection,CHILLED WATER LOOP DEMAND BYPASS PIPE OUTLET NODE,PIPE:ADIABATIC,CHILLED WATER LOOP DEMAND BYPASS PIPE,Outlet,1
 Non-Parent Node Connection,NODE 58,PIPE:ADIABATIC,PIPE ADIABATIC 10,Inlet,1
 Non-Parent Node Connection,NODE 44,PIPE:ADIABATIC,PIPE ADIABATIC 10,Outlet,1
 Non-Parent Node Connection,NODE 66,PIPE:ADIABATIC,PIPE ADIABATIC 11,Inlet,1
 Non-Parent Node Connection,NODE 67,PIPE:ADIABATIC,PIPE ADIABATIC 11,Outlet,1
 Non-Parent Node Connection,NODE 68,PIPE:ADIABATIC,PIPE ADIABATIC 12,Inlet,1
 Non-Parent Node Connection,NODE 60,PIPE:ADIABATIC,PIPE ADIABATIC 12,Outlet,1
 Non-Parent Node Connection,NODE 62,PIPE:ADIABATIC,PIPE ADIABATIC 14,Inlet,1
 Non-Parent Node Connection,NODE 73,PIPE:ADIABATIC,PIPE ADIABATIC 14,Outlet,1
 Non-Parent Node Connection,NODE 71,PIPE:ADIABATIC,PIPE ADIABATIC 13,Inlet,1
 Non-Parent Node Connection,NODE 72,PIPE:ADIABATIC,PIPE ADIABATIC 13,Outlet,1
 Non-Parent Node Connection,CONDENSER WATER LOOP DEMAND BYPASS PIPE INLET NODE,PIPE:ADIABATIC,CONDENSER WATER LOOP DEMAND BYPASS PIPE,Inlet,1
 Non-Parent Node Connection,CONDENSER WATER LOOP DEMAND BYPASS PIPE OUTLET NODE,PIPE:ADIABATIC,CONDENSER WATER LOOP DEMAND BYPASS PIPE,Outlet,1
 Non-Parent Node Connection,NODE 74,PIPE:ADIABATIC,PIPE ADIABATIC 15,Inlet,1
 Non-Parent Node Connection,NODE 63,PIPE:ADIABATIC,PIPE ADIABATIC 15,Outlet,1
 Non-Parent Node Connection,NODE 32,PIPE:ADIABATIC,PIPE ADIABATIC 1,Inlet,1
 Non-Parent Node Connection,NODE 33,PIPE:ADIABATIC,PIPE ADIABATIC 1,Outlet,1
 Non-Parent Node Connection,NODE 39,PIPE:ADIABATIC,PIPE ADIABATIC 5,Inlet,1
 Non-Parent Node Connection,NODE 25,PIPE:ADIABATIC,PIPE ADIABATIC 5,Outlet,1
 Non-Parent Node Connection,NODE 27,PIPE:ADIABATIC,PIPE ADIABATIC 3,Inlet,1
 Non-Parent Node Connection,NODE 38,PIPE:ADIABATIC,PIPE ADIABATIC 3,Outlet,1
 Non-Parent Node Connection,NODE 29,PIPE:ADIABATIC,PIPE ADIABATIC 2,Inlet,1
 Non-Parent Node Connection,NODE 34,PIPE:ADIABATIC,PIPE ADIABATIC 2,Outlet,1
 Non-Parent Node Connection,HOT WATER LOOP DEMAND BYPASS PIPE INLET NODE,PIPE:ADIABATIC,HOT WATER LOOP DEMAND BYPASS PIPE,Inlet,1
 Non-Parent Node Connection,HOT WATER LOOP DEMAND BYPASS PIPE OUTLET NODE,PIPE:ADIABATIC,HOT WATER LOOP DEMAND BYPASS PIPE,Outlet,1
 Non-Parent Node Connection,NODE 37,PIPE:ADIABATIC,PIPE ADIABATIC 4,Inlet,1
 Non-Parent Node Connection,NODE 28,PIPE:ADIABATIC,PIPE ADIABATIC 4,Outlet,1
 Non-Parent Node Connection,NODE 42,CHILLER:ELECTRIC:EIR,CHILLER ELECTRIC EIR 1,Inlet,1
 Non-Parent Node Connection,NODE 47,CHILLER:ELECTRIC:EIR,CHILLER ELECTRIC EIR 1,Outlet,1
 Non-Parent Node Connection,NODE 64,CHILLER:ELECTRIC:EIR,CHILLER ELECTRIC EIR 1,Inlet,2
 Non-Parent Node Connection,NODE 70,CHILLER:ELECTRIC:EIR,CHILLER ELECTRIC EIR 1,Outlet,2
 Non-Parent Node Connection,NODE 61,COOLINGTOWER:SINGLESPEED,COOLING TOWER SINGLE SPEED 1,Inlet,1
 Non-Parent Node Connection,NODE 65,COOLINGTOWER:SINGLESPEED,COOLING TOWER SINGLE SPEED 1,Outlet,1
 Non-Parent Node Connection,NODE 26,BOILER:HOTWATER,BOILER HOT WATER 1,Inlet,1
 Non-Parent Node Connection,NODE 31,BOILER:HOTWATER,BOILER HOT WATER 1,Outlet,1
 Non-Parent Node Connection,NODE 40,PUMP:VARIABLESPEED,PUMP VARIABLE SPEED 2,Inlet,1
 Non-Parent Node Connection,NODE 46,PUMP:VARIABLESPEED,PUMP VARIABLE SPEED 2,Outlet,1
 Non-Parent Node Connection,NODE 59,PUMP:VARIABLESPEED,PUMP VARIABLE SPEED 3,Inlet,1
 Non-Parent Node Connection,NODE 69,PUMP:VARIABLESPEED,PUMP VARIABLE SPEED 3,Outlet,1
 Non-Parent Node Connection,NODE 24,PUMP:VARIABLESPEED,PUMP VARIABLE SPEED 1,Inlet,1
 Non-Parent Node Connection,NODE 30,PUMP:VARIABLESPEED,PUMP VARIABLE SPEED 1,Outlet,1
